      Date: 05/28/2012      Time: 12:31:44  

     ___________________________________________________
     |                                                 |
     |  Livermore  Software  Technology  Corporation   |
     |                                                 |
     |  7374 Las Positas Road                          |
     |  Livermore, CA 94551                            |
     |  Tel: (925) 449-2500  Fax: (925) 449-2507       |
     |  www.lstc.com                                   |
     |_________________________________________________|
     |                                                 |
     |  LS-DYNA, A Program for Nonlinear Dynamic       |
     |  Analysis of Structures in Three Dimensions     |
     |  Version : ls971d R4.2.1   Date: 06/08/2009     |
     |  Revision: 53450           Time: 07:09:25       |
     |                                                 |
     |  Features enabled in this version:              |
     |    Shared Memory Parallel                       |
     |    Interactive Graphics                         |
     |    ANSYS Database format                        |
     |    ANSYS License (ans110)                       |
     |    32 Bit IEEE Binary File                      |
     |                                                 |
     |  Licensed to: Virginia Tech Dept of Eng Science |
     |  Issued by  : LSTC_03202012                     |
     |                                                 |
     |  Platform   : Xeon64 System                     |
     |  OS Level   : Linux 2.6.18                      |
     |  Compiler   : Intel Fortran Compiler 10.1       |
     |  Hostname   : compute-0-0.local                 |
     |  Precision  : Double precision (I8R8)           |
     |  Product ID : 53929                             |
     |                                                 |
     |  Unauthorized use infringes LSTC copyrights     |
     |_________________________________________________|

 Input file: input.k                                                                 


 The native file format       : 64-bit small endian
 Memory size from default     :    20000000

********  notice  ********  notice  ********  notice  ********
*                                                            *
* This is the LS-DYNA Finite Element code.                   *
*                                                            *
* Neither LSTC nor the authors assume any responsibility for *
* the validity, accuracy, or applicability of any results    *
* obtained from this system. The user must verify his own    *
* results.                                                   *
*                                                            *
* LSTC endeavors to make the LS-DYNA code as complete,       *
* accurate and easy to use as possible.                      *
* Suggestions and comments are welcomed.  Please report any  *
* errors encountered in either the documentation or results  *
* immediately to LSTC through your site focus.               *
*                                                            *
* Copyright (C) 1990-2009                                    *
* by Livermore Software Technology Corp. (LSTC)              *
* All rights reserved                                        *
*                                                            *
********  notice  ********  notice  ********  notice  ********

 Open include file: input.plate.k


         **            ******  **********    *******                            
         **           *******  **********   ********                            
         **          **            **      ***                                  
         **           *******      **      **                                   
         **                 **     **      ***                                  
         *********   ********      **       ********                            
         *********   ******        **         ******                            
                                                                                
                                                                                
**          ******    ******     **    **  **     **    *****                   
**         *******    ********   **    **  **     **   *******                  
**        **          **   ***   **    **  ***    **  ***   ***                 
**          **     ** **   ***   **    **  ***    **  ***   ***                 
**            **   ** **    **     ****    ** **  **  *********                 
**              **    **   ***      **     **    ***  **     **                 
**              **    **   ***      **     **    ***  **     **                 
********  *******     *******       **     **     **  **     **                 
********  ******      ******        **     **      *  **     **                 

            L I S T   O F   K E Y W O R D   C O U N T S   

total # of *AIRBAG_option..........................       0
total # of *AIRBAG_INTERACTION.....................       0
total # of *AIRBAG_REFERENCE_GEOMETRY..............       0
total # of *AIRBAG_SHELL_REFERENCE_GEOMETRY........       0
total # of *ALE_FSI_SWITCH_MMG.....................       0
total # of *ALE_FAIL_SWITCH_MMG....................       0
total # of *CONSTRAINED_LAGRANGE_IN_SOLID..........       0
total # of *ALE_REFERENCE_SYSTEM_GROUP.............       0
total # of *ALE_AMBIENT_HYDROSTATIC................       0
total # of *BOUNDARY_ACOUSTIC_COUPLING.............       0
total # of *BOUNDARY_ALE_MIXING_LENGTH.............       0
total # of *BOUNDARY_CONVECTION_SEGMENT............       0
total # of *BOUNDARY_CONVECTION_SET................       0
total # of *BOUNDARY_CYCLIC........................       0
total # of *BOUNDARY_ELEMENT_METHOD_FLOW...........       0
total # of *BOUNDARY_ELEMENT_METHOD_CONTROL........       0
total # of *BOUNDARY_ELEMENT_METHOD_NEIGHBOR.......       0
total # of *BOUNDARY_ELEMENT_METHOD_WAKE...........       0
total # of *BOUNDARY_ELEMENT_METHOD_SYMMETRY.......       0
total # of *BOUNDARY_FLUX_SEGMENT..................       0
total # of *BOUNDARY_FLUX_SET......................       0
total # of *BOUNDARY_NON_REFLECTING................       0
total # of *BOUNDARY_MCOL..........................       0
total # of *BOUNDARY_PORE_FLUID ...................       0
total # of *BOUNDARY_PRESCRIBED_MOTION_NODE.+RIGID.       0
total # of *BOUNDARY_PRESCRIBED_MOTION_SET.........       0
total # of *BOUNDARY_PRESCRIBED_ORIENTATION........       0
total # of *BOUNDARY_PRESCRIBED_ACCELEROMETER......       0
total # of *BOUNDARY_PRESSURE_OUTFLOW_SEGMENT......       0
total # of *BOUNDARY_PRESSURE_OUTFLOW_SET..........       0
total # of *BOUNDARY_PWP_OPTION ...................       0
total # of *BOUNDARY_RADIATION_SEGMENT.(Type 1)....       0
total # of *BOUNDARY_RADIATION_SET.................       0
total # of *BOUNDARY_RADIATION_SEGMENT.(Type 2)....       0
total # of *BOUNDARY_RADIATION_SET.(Type 2)........       0
total # of *BOUNDARY_SLIDING_PLANE.................       0
total # of *BOUNDARY_SPC_NODE......................       0
total # of *BOUNDARY_SPC_SET.......................       4
total # of *BOUNDARY_FREE_FIELD_GROUND_MOTION_NODE.       0
total # of *BOUNDARY_FREE_FIELD_GROUND_MOTION_SET..       0
total # of *BOUNDARY_FREE_FIELD_GROUND_MOTION_POINT       0
total # of *BOUNDARY_SPH_FLOW......................       0
total # of *BOUNDARY_SPH_SYMMETRY_PLANE............       0
total # of *BOUNDARY_SYMMETRY_FAILURE..............       0
total # of *BOUNDARY_TEMPERATURE_NODE..............       0
total # of *BOUNDARY_TEMPERATURE_SET...............       0
total # of *BOUNDARY_THERMAL_BULKFLOW_SET..........       0
total # of *BOUNDARY_THERMAL_BULKFLOW_ELEMENT......       0
total # of *BOUNDARY_THERMAL_BULKNODE..............       0
total # of *BOUNDARY_USA...........................       0
total # of *COMPONENT_GEBOD........................       0
total # of *COMPONENT_GEBOD_JOINT..................       0
total # of *COMPONENT_HYBRIDIII....................       0
total # of *COMPONENT_HYBRIDIII_JOINT..............       0
total # of *CONSTRAINED_BUTT_WELD..................       0
total # of *CONSTRAINED_EXTRA_NODES................       0
total # of *CONSTRAINED_EXTRA_NODES_SET............       0
total # of *CONSTRAINED_GLOBAL.....................       0
total # of *CONSTRAINED_INTERPOLATION..............       0
total # of *CONSTRAINED_JOINT_type.................       0
total # of *CONSTRAINED_JOINT_..._FAILURE..........       0
total # of *CONSTRAINED_JOINT_USER_FORCE...........       0
total # of *CONSTRAINED_JOINT_STIFFNESS_type.......       0
total # of *CONSTRAINED_LINEAR.....................       0
total # of *CONSTRAINED_LINEAR_LOCAL...............       0
total # of *CONSTRAINED_NODAL_RIGID_BODY_option....       0
total # of *CONSTRAINED_NODE_SET...................       0
total # of *CONSTRAINED_RIGID_BODIES...............       0
total # of *CONSTRAINED_RIGID_BODY_STOPPERS........       0
total # of *CONSTRAINED_SHELL-SOLID................       0
total # of *CONSTRAINED_SPLINE.....................       0
total # of *CONSTRAINED_SPOTWELD+CONSTRAINED_RIVET.       0
total # of *CONSTRAINED_TIE-BREAK..................       0
total # of *CONSTRAINED_TIE-NODE-FAILURE...........       0
total # of *CONTACT_option.........................       0
total # of *CONTACT_GEOMETRIC_option...............       0
total # of *CONTACT_GUIDED_CABLE...................       0
total # of *CONTACT_1D.............................       0
total # of *CONTACT_2D.............................       0
total # of *CONTACT_2D_AUTOMATIC...................       0
total # of *CONTROL_ACOUSTIC.......................       0
total # of *CONTROL_ADAPTIVE_SOLID_TO_SPH..........       0
total # of *CONTROL_ADAPTIVITY.....................       0
total # of *CONTROL_BULK_VISCOSITY.................       0
total # of *CONTROL_CONTACT........................       0
total # of *CONTROL_COUPLING.......................       0
total # of *CONTROL_CPU............................       0
total # of *CONTROL_DYNAMIC_RELAXATION (DAMPING)...       0
total # of *CONTROL_EFG............................       0
total # of *CONTROL_ENERGY.........................       0
total # of *CONTROL_EXPLOSIVE_SHADOW...............       0
total # of *CONTROL_HOURGLASS......................       0
total # of *MPP_option.............................       0
total # of *CONTROL_NONLOCAL.......................       0
total # of *CONTROL_OUTPUT.........................       1
total # of *CONTROL_PARALLEL.......................       0
total # of *CONTROL_REFINE.........................       0
total # of *CONTROL_SHELL..........................       0
total # of *CONTROL_SOLUTION.......................       0
total # of *CONTROL_SPH............................       0
total # of *CONTROL_SUBCYCLE.......................       0
total # of *CONTROL_THERMAL_SOLVER.................       0
total # of *CONTROL_THERMAL_TIMESTEP...............       0
total # of *CONTROL_THERMAL_NONLINEAR..............       0
total # of *CONTROL_TIMESTEP.......................       1
total # of *CONTROL_TERMINATION....................       1
total # of *CONTROL_VIBRO_ACOUSTIC.................       0
total # of *DAMPING_GLOBAL.........................       0
total # of *DAMPING_PART_MASS......................       0
total # of *DAMPING_PART_MASS_SET..................       0
total # of *DAMPING_PART_STIFFNESS.................       0
total # of *DAMPING_PART_STIFFNESS_SET.............       0
total # of *DAMPING_RELATIVE.......................       0
total # of *DATABASE_ABSTAT........................       0
total # of *DATABASE_ATDOUT........................       0
total # of *DATABASE_AVSFLT........................       0
total # of *DATABASE_BNDOUT........................       0
total # of *DATABASE_CPM_SENSOR....................       0
total # of *DATABASE_DCFAIL........................       0
total # of *DATABASE_DEFGEO........................       0
total # of *DATABASE_DEFORC........................       0
total # of *DATABASE_ELOUT.........................       1
total # of *DATABASE_FSI...........................       0
total # of *DATABASE_FSI_SENSOR....................       0
total # of *DATABASE_GCEOUT........................       0
total # of *DATABASE_GLSTAT........................       0
total # of *DATABASE_H3OUT.........................       0
total # of *DATABASE_JNTFORC.......................       0
total # of *DATABASE_MASSOUT.......................       0
total # of *DATABASE_MATSUM........................       0
total # of *DATABASE_MPGS.......... ...............       0
total # of *DATABASE_MOVIE.........................       0
total # of *DATABASE_NCFORC........................       0
total # of *DATABASE_NODFOR........................       0
total # of *DATABASE_NODOUT........................       1
total # of *DATABASE_RBDOUT........................       0
total # of *DATABASE_RCFORC........................       0
total # of *DATABASE_RWFORC........................       0
total # of *DATABASE_SBTOUT........................       0
total # of *DATABASE_SECFORC.......................       0
total # of *DATABASE_SLEOUT........................       0
total # of *DATABASE_SPCFORC.......................       0
total # of *DATABASE_SPH...........................       0
total # of *DATABASE_SUPERPLASTIC..................       0
total # of *DATABASE_SWFORC........................       0
total # of *DATABASE_TPRINT........................       0
total # of *DATABASE_TRHIST........................       0
total # of *DATABASE_BINARY_D3PLOT.................       1
total # of *DATABASE_BINARY_D3THDT.................       0
total # of *DATABASE_BINARY_D3PART.................       0
total # of *DATABASE_BINARY_D3DRFL.................       0
total # of *DATABASE_BINARY_D3DUMP.................       0
total # of *DATABASE_BINARY_RUNRSF.................       0
total # of *DATABASE_BINARY_INTFOR.................       0
total # of *DATABASE_BINARY_FSIFOR.................       0
total # of *DATABASE_BINARY_CPMFOR.................       0
total # of *DATABASE_BINARY_XTFILE.................       0
total # of *DATABASE_BINARY_BLSTFOR................       0
total # of *DATABASE_CROSS_SECTION_option..........       0
total # of *DATABASE_EXTENT_AVS....................       0
total # of *DATABASE_EXTENT_MOVIE .................       0
total # of *DATABASE_EXTENT_MPGS...................       0
total # of *DATABASE_EXTENT_BINARY.................       1
total # of *DATABASE_EXTENT_D3PART.................       0
total # of *DATABASE_HISTORY_NODE_option...........       1
total # of *DATABASE_HISTORY_SOLID_option..........       0
total # of *DATABASE_HISTORY_BEAM_option...........       0
total # of *DATABASE_HISTORY_SHELL_option..........       1
total # of *DATABASE_HISTORY_SPH_option............       0
total # of *DATABASE_HISTORY_TSHELL_option.........       0
total # of *DATABASE_NODAL_FORCE_GROUP.............       0
total # of *DATABASE_POWER_SPECTRAL_DENSITY........       0
total # of *DATABASE_POWER_SPECTRAL_DENSITY_FREQUE.       0
total # of *DATABASE_PWP_FLOW .....................       0
total # of *DEFINE_BOX.............................       0
total # of *DEFINE_CONSTRUCTION_STAGES ............       0
total # of *DEFINE_COORDINATE_option...............       0
total # of *DEFINE_CURVE...........................       1
total # of *DEFINE_CURVE_DUPLICATE.................       0
total # of *DEFINE_CURVE_ENTITY....................       0
total # of *DEFINE_CURVE_FUNCTION..................       0
total # of *DEFINE_FUNCTION........................       0
total # of *DEFINE_GROUND_MOTION...................       0
total # of *DEFINE_VECTOR..........................       0
total # of *DEFINE_SD_ORIENTATION..................       0
total # of *DEFINE_SOLID_ELEMENT_DEATH.............       0
total # of *DEFINE_BEAM_ELEMENT_DEATH..............       0
total # of *DEFINE_SHELL_ELEMENT_DEATH.............       0
total # of *DEFINE_THICK_SHELL_ELEMENT_DEATH.......       0
total # of *DEFINE_SPOTWELD_RUPTURE_STRESS.........       0
total # of *DEFINE_SPOTWELD_RUPTURE_PARAMETER......       0
total # of *DEFINE_STAGED_CONSTRUCTION_PART .......       0
total # of *DATABASE_BKSTAT........................       0
total # of *DEFORMABLE_TO_RIGID....................       0
total # of *DEFORMABLE_TO_RIGID_AUTOMATIC..........       0
total # of *DEFORMABLE_TO_RIGID_INERTIA............       0
total # of *ELEMENT_BEAM_option....................       0
total # of *ELEMENT_DISCRETE.......................       0
total # of *ELEMENT_MASS...........................       0
total # of *ELEMENT_MASS_PART......................       0
total # of *ELEMENT_SEATBELT.......................       0
total # of *ELEMENT_SEATBELT_ACCELEROMETER.........       0
total # of *ELEMENT_SEATBELT_PRETENSIONER..........       0
total # of *ELEMENT_SEATBELT_RETRACTOR.............       0
total # of *ELEMENT_SEATBELT_SENSOR................       0
total # of *ELEMENT_SEATBELT_SLIPRING..............       0
total # of *ELEMENT_SHELL_option...................     121
total # of *ELEMENT_SOLID..........................       0
total # of *ELEMENT_SPH............................       0
total # of *ELEMENT_TSHELL.........................       0
total # of *ELEMENT_INERTIA........................       0
total # of *EOS_option.............................       0
total # of *FV_MESHES..............................       0
total # of *FV_FSI.................................       0
total # of *HOURGLASS..............................       0
total # of *INITIAL_AXIAL_FORCE_BEAM...............       0
total # of *INITIAL_DETONATION.....................       0
total # of *INITIAL_MOMENTUM.......................       0
total # of *INITIAL_PWP_DEPTH .....................       0
total # of *INITIAL_STRAIN_SHELL...................       0
total # of *INITIAL_STRAIN_SOLID...................       0
total # of *INITIAL_STRESS_BEAM....................       0
total # of *INITIAL_STRESS_DEPTH ..................       0
total # of *INITIAL_STRESS_SECTION.................       0
total # of *INITIAL_STRESS_SHELL...................       0
total # of *INITIAL_STRESS_SHELL_SET...............       0
total # of *INITIAL_STRESS_SOLID...................       0
total # of *INITIAL_STRESS_SPH.....................       0
total # of *INITIAL_STRESS_TSHELL..................       0
total # of *INITIAL_TEMPERATURE_SET................       0
total # of *INITIAL_TEMPERATURE_NODE...............       0
total # of *INITIAL_VELOCITY.......................       0
total # of *INITIAL_VELOCITY_NODE..................       0
total # of *INITIAL_VELOCITY_RIGID_BODY............       0
total # of *INITIAL_VOID_PART......................       0
total # of *INITIAL_VOID_SET.......................       0
total # of *INITIAL_HYDROSTATIC_ALE................       0
total # of *INITIAL_EOS_ALE........................       0
total # of *INITIAL_ALE_MAPPING....................       0
total # of *INTEGRATION_BEAM.......................       0
total # of *INTEGRATION_SHELL......................       0
total # of *INTERFACE_COMPONENT_option.............       0
total # of *INTERFACE_JOY..........................       0
total # of *INTERFACE_LINKING_DISCRETE_NODE........       0
total # of *INTERFACE_LINKING_DISCRETE_NODE_SET....       0
total # of *INTERFACE_LINKING_EDGE.................       0
total # of *INTERFACE_LINKING_SEGMENT..............       0
total # of *INTERFACE_SPRINGBACK...................       0
total # of *INTERFACE_SSI_AUXILIARY_FREE_FIELD.....       0
total # of *INTERFACE_SSI_STATIC...................       0
total # of *INTERFACE_SSI..........................       0
total # of *LOAD_ALE_CONVECTION ...................       0
total # of *LOAD_AIR_PRESSURE......................       0
total # of *LOAD_BEAM..............................       0
total # of *LOAD_BEAM_SET..........................       0
total # of *LOAD_BODY_GENERALIZED..................       0
total # of *LOAD_BODY_RPOROUS......................       0
total # of *LOAD_BODY_RX...........................       0
total # of *LOAD_BODY_RY...........................       0
total # of *LOAD_BODY_RZ...........................       0
total # of *LOAD_BODY_X............................       0
total # of *LOAD_BODY_Y............................       0
total # of *LOAD_BODY_Z............................       0
total # of *LOAD_BRODE.............................       0
total # of *LOAD_BLAST.............................       0
total # of *LOAD_BLAST_ENHANCED....................       0
total # of *LOAD_BLAST_SEGMENT.....................       0
total # of *LOAD_BLAST_SEGMENT_SET.................       0
total # of *LOAD_DENSITY_DEPTH ....................       0
total # of *LOAD_GRAVITY_PART .....................       0
total # of *LOAD_HEAT_GENERATION_SET...............       0
total # of *LOAD_HEAT_GENERATION_SOLID.............       0
total # of *LOAD_NODE..............................     144
total # of *LOAD_NODE_SET..........................       0
total # of *LOAD_NSG...............................       0
total # of *LOAD_REMOVE_PART ......................       0
total # of *LOAD_SEGMENT...........................       0
total # of *LOAD_SEGMENT_NONUNIFORM................       0
total # of *LOAD_SEGMENT_SET.......................       0
total # of *LOAD_SEGMENT_SET_NONUNIFORM............       0
total # of *LOAD_SHELL.............................       0
total # of *LOAD_SHELL_SET.........................       0
total # of *LOAD_STIFFEN_PART .....................       0
total # of *LOAD_SUPERPLASTIC_FORMING..............       0
total # of *LOAD_SURFACE_STRESS....................       0
total # of *LOAD_THERMAL_option_ELEMENT............       0
total # of *LOAD_THERMAL_option_NODE...............       0
total # of *LOAD_THERMAL_option....................       0
total # of *LOAD_THERMAL_LOAD_CURVE................       0
total # of *LOAD_THERMAL_TOPAZ ....................       0
total # of *LOAD_THERMAL_VARIABLE_SHELL_option.....       0
total # of *LOAD_THERMAL_VARIABLE_BEAM _option.....       0
total # of *LOAD_VIBRO_ACOUSTIC....................       0
total # of *LOAD_VOLUME_LOSS ......................       0
total # of *LSO_DOMAIN.............................       0
total # of *LSO_DOMAIN_GROUP.......................       0
total # of *LSO_VARIABLE_GROUP.....................       0
total # of *LSO_TIME_SEQUENCE......................       0
total # of *MAT_option.............................       2
total # of *MAT_THERMAL_option.....................       0
total # of *NONLOCAL...............................       0
total # of *NODE...................................     144
total # of *PART_option card.......................       0
total # of *RIGIDWALL_option.......................       0
total # of *SECTION_option.........................       0
total # of *SET_2D_SEGMENT.........................       0
total # of *SET_BEAM...............................       0
total # of *SET_DISCRETE...........................       0
total # of *SET_NODE_option........................       6
total # of *SET_PART...............................       0
total # of *SET_POINT..............................       0
total # of *SET_SEGMENT............................       0
total # of *SET_SHELL_option.......................       1
total # of *SET_SOLID..............................       0
total # of *SET_TSHELL.............................       0
total # of *TERMINATION_BODY.......................       0
total # of *TERMINATION_DELETED_SHELLS.............       0
total # of *TERMINATION_DELETED_SOLIDS.............       0
total # of *TERMINATION_NODE.......................       0
total # of *TERMINATION_CONTACT....................       0
total # of *TITLE..................................       1
total # of *USER_INTERFACE_CONTROL.................       0
total # of *USER_INTERFACE_FRICTION................       0
total # of *USER_INTERFACE_CONDUCTIVITY............       0
total # of *USER_LOAD..............................       0
total # of *CHANGE_BOUNDARY_CONDITIONS.............       0
total # of *CHANGE_CONTACT_SMALL_PENETRATION.......       0
total # of *CHANGE_RIGID_BODY_CONSTRAINTS..........       0
total # of *CHANGE_RIGID_BODY_INERTIA..............       0
total # of *CHANGE_THERMAL_PARAMETERS..............       0
total # of *CHANGE_VELOCITY_ZERO...................       0
total # of *CHANGE_VELOCITY_RIGID_BODY.............       0
total # of *DELETE_CONTACT.........................       0
total # of *DELETE_CONTACT_2DAUTO..................       0
total # of *DELETE_FSI ............................       0
total # of *DELETE_ENTITY..........................       0
total # of *DELETE_ELEMENT_SOLID...................       0
total # of *DELETE_ELEMENT_BEAM....................       0
total # of *DELETE_ELEMENT_SHELL...................       0
total # of *DELETE_ELEMENT_TSHELL..................       0
total # of *DELETE_PART............................       0
total # of *RIGID_DEFORMABLE_CONTROL...............       0
total # of *RIGID_DEFORMABLE_D2R...................       0
total # of *RIGID_DEFORMABLE_R2D...................       0
total # of *STRESS_INITIALIZATION..................       0
 -> Processing pcomp

 *** Warning *SET_NODE Set number          20 is empty

 Memory required to process keyword     :       249269

 LS-DYNA will perform a structural only analysis 



 Stress recovery trial                                                   
            code input version =1993
            formats            =mlarg



    IMPLICIT CONTROL CARD 1.  General Data

    implicit/explicit switching flag ..............       1
          eq.0: explicit analysis                       
          eq.1: implicit analysis                       
          eq.2: explicit, then seamless springback      
          eq.4: implicit with automatic implicit/explicit switching
          eq.5: implicit with automatic implicit/explicit switching
                with mandatory implicit finish                     
          eq.6: explicit with intermittent eigenvalues  
          eq.-n: load curve n gives flag vs. time       

    initial time step for implicit solution .......    0.1000E-01

    element formulation after switching ...........       2
          eq.1: switch to fully integrated element      
          eq.2: retain element formulation              

    number of steps for nonlinear springback ......       1

    geometric (initial stress) stiffness flag .....       2
          eq.1: include                                 
          eq.2: ignore                                  

    consistent tangential stiffness flag ..........       0
          eq.0: do not use                              
          eq.1: use                                     

    displacement termination tolerance 1 ..........    0.0000E+00
          eq.0: use time based termination (default)    

    displacement termination tolerance 2 ..........    0.0000E+00
          eq.0: use time based termination (default)    

    zero out velocities when switching to implicit.       0
          eq.0: keep velocities (default)    
          eq.1: zero velocities 



    IMPLICIT CONTROL CARD 2.  Solution

    solution method ...............................       2
          eq.1: linear                                  
          eq.2: nonlinear, BFGS updates              
          eq.3: nonlinear, Broydens updates          
          eq.4: nonlinear, DFP updates               
          eq.5: nonlinear, Davidon updates           
          eq.6: nonlinear, BFGS updates+arclength    
          eq.7: nonlinear, Broydens updates+arclength
          eq.8: nonlinear, DFP updates+arclength     
          eq.9: nonlinear, Davidon updates+arclength 

    iteration limit per reformation ...............      11

    reformation limit per step ....................      15

    displacement convergence tolerance ............    0.1000E-02

    energy convergence tolerance ..................    0.1000E-01

    residual convergence tolerance ................    0.9990E+11

    line search convergence tolerance .............    0.9000E+00

    absolute convergence tolerance ................    0.1000E-09

    displacement norm .............................       2
          eq.1: increment vs. total this step           
          eq.2: increment vs. total whole simulation    

    divergence flag ...............................       1
          eq.1: reform stiffness if residual grows      
          eq.2: ignore growing residual                 

    initial stiffness interval ....................       1
          eq.1: form new stiffness each step            
          eq.n: new stiffness every n steps             

    nonlinear solver print flag ...................       0
          eq.0: no iteration info to screen             
          eq.1: print iteration info to screen, files   
          eq.2: extra iteration info to d3hsp and messag



    IMPLICIT CONTROL CARD 2a.  Solution

    convergence norms .............................       2
          eq.1: use translational and rotational DOFs   
          eq.2: use only translational DOFs             
          eq.4: use translational plus rotational DOFs  

    d3iter control ................................       0
          eq.0: use sense switch control (default)      
          eq.n: write d3iter database every time step   
                but rewind every n-th time step         

    line search method ............................       1
          eq.1: based on translational dofs (default)   
          eq.2: based on residual function              
          eq.3: based on translational+rotational dofs  

    line search direction .........................       2
          eq.1: traditional form (ls970 and earlier)    
          eq.2: search only independent dofs (default)  
          eq.3: adaptive line search (experimental)     
          eq.4: curved line search (experimental)       

    experimental line search parameters ...........
          curvature factor 0-straight,1-full curved    0.0000E+00
          radius of influence (curved search)          0.0000E+00
          adaptive line search weight (0. to 1.)       0.0000E+00
          init. step reduction (0. to 1.,adaptive)     0.0000E+00
    contact penetration check .....................       0
          eq.0: no checking (default)                   
          eq.1: check for contact penetration           



    IMPLICIT CONTROL CARD 2b.  Joints              

    implicit treatment for spherical joint ........       0
          eq.1: constraint formulation (DEFAULT)
          eq.2: penalty formulation  

    implicit treatment for revolute joint .........       0
          eq.1: constraint formulation (DEFAULT)
          eq.2: penalty formulation  

    implicit treatment for cylindrical joint ......       0
          eq.1: constraint formulation (DEFAULT)
          eq.2: penalty formulation  



    IMPLICIT CONTROL CARD 3.  Linear Solver

    linear equation solver ........................      4
          eq. 4: sparse direct single - auto out-of-core 
          eq. 5: sparse direct double - auto out-of-core 
          eq. 6: BCSLIB-EXT double - auto out-of-core    
          eq.11: iterative, Conjugate Gradient           
          eq.12: iterative, C.G. with Jacobi             
          eq.13: iterative, C.G. with Inc. Choleski      
          eq.14: iterative, Lanczos                      
          eq.15: iterative, Lanczos with Jacobi          
          eq.16: iterative, Lanczos with Inc. Choleski   

          eq.21: iterative, Algebraic Multigrid          

    linear solver print flag ......................      0
          eq.0: no printing                             
          eq.1: small amount of summary statistics      
          eq.2: additional statistics                   
          eq.3: debug level recommended only for problem-debugging

    negative eigenvalue option ....................      2
          eq.1: retry step if negative eigenvalue       
          eq.2: ignore negative eigenvalues             

    sparse ordering option ........................      0
          eq.0: ordering chosen by LS-DYNA              
          eq.1: order with Multiple Minimum Degree      
          eq.2: order with METIS                        

    Drilling Rotation Constraint Method ...........      4
          eq.1: add additional stiffness                
          eq.3: no constraint method                    
          eq.4: add force and stiffness                 

    Drilling Rotation Constraint Parameter ........    1.0000E+00

    AUTOSPC Control Switch ........................      1
          eq.1: AUTOSPC On                              
          eq.2: AUTOSPC Off                             

    AUTOSPC Tolerance .............................    1.0000E-08

    Matrix Assembly Method ........................      2
          eq.2: Use LCPACK (default)                    
          eq.3: Use LCPACK w/experimental nonlinear     

    Matrix Dumping Flag ...........................      0



    IMPLICIT CONTROL CARD 4.  Auto Time Step Control

    time step control method ......................       0
          eq.0: fixed (constant) time step size         
          eq.1: variable automatic time step size       

    target iteration count ........................      11

    iteration window ..............................       0

    minimum allowable step size ...................    0.0000E+00

    maximum allowable step size ...................    0.0000E+00
          eq.0: max. allowed step size is 1000*initial step size
          gt.0: maximum allowed step size                 
          lt.0: -(curve ID) for max. allowed step size    

    time interval to run explicit when switching       0.0000E+00
          lt.0: -(curve ID) for time interval             

    no. of failed steps before switching ..........       1

    artificial stabilization flag .................       2
          eq.1: on  ('springback' analysis DEFAULT)      
          eq.2: off ('standard' analysis DEFAULT)        

    scale factor for artificial stabilization .....    0.1000E+01

    start time for artificial stabilization .......    0.0000E+00
          eq.0.0: immediately                            

    end time for artificial stabilization .........    0.0000E+00
          eq.0.0: termination time



    IMPLICIT CONTROL CARD 5.  Dynamic and Eigenvalue

    implicit dynamic flag .........................       0
          eq.0: implicit static
          eq.1: implicit dynamic
          eq.2: modal superposition (eigenvalue analysis)
          eq.3: modal superposition using d3eigv file    

    first  Newmark parameter (default=.50) ........    0.0000E+00

    second Newmark parameter (default=.25) ........    0.0000E+00

    number of eigenvalues to extract ..............       0
          lt.0: -(curve ID) for intermittent extraction   

    eigenvalue frequency shift ....................    0.0000E+00

    number of constraint modes to extract .........       0

    number of attachment modes to extract .........       0

    number of eigen      modes to extract .........       0

    buckling mode flag ............................       0
          eq.0: compute eigenvalues
          eq.1: compute buckling modes

    inertia relief computation flag ...............       0
          eq.0: do not perform inertia relief computation
          eq.1: perform inertia relief computation

    inertia relief mode threshold .................    0.0000E+00

    flag for optional eigenvalue control card .....       0
          eq.0: no card - use defaults
          ge.1: next cards specifies additional parameters



    IMPLICIT CONTROL CARD 6.  Arc Length            

    node controlling arc length method ............       0
          eq.0: generalized arc length method

    direction controlling arc length method .......       0

    arc length size  ..............................    0.0000E+00
          eq.0: chosen from initial stepsize

    arc length formulation ........................       1
          eq.1: Crisfield (generalized arc length only)
          eq.2: Ramm 

    arc length damping option .....................       2
          eq.1: on
          eq.2: off


 c o n t r o l   i n f o r m a t i o n

    CONTROL CARD 1. Model Size-General

    number of materials or property sets...........       2

    number of nodal+scalar points..................     144

    number of solid elements.......................       0

    number of beam elements........................       0

    number of shell elements.......................     121

    number of thick shell elements.................       0

    number of user defined material subroutines....       0

    number of material groups tied to solids.......       0

    number of tracer particles.....................       0

    number of super elements.......................       0

    number of solid tetrahedrons with 10 nodes.....       0

    number of quadratic shell elements.............       0

    number of shells with extra degrees of freedom.       0

    number of solids with extra degrees of freedom.       0

    number of user defined sections................       0

    activate sensor capability (inactive=0)........       0

    number of user defined solid element types.....       0

    number of solid interpolation elements.........       0

    number of user defined shell element types.....       0

    number of shell interpolation elements.........       0

    number of constrained nodes for interpolation..       0

    consistent mass matrix for user-def elements...       0




    CONTROL CARD 2. Model Size-Boundary Conditions

    number of spc nodes............................      44

    number of spc coordinates......................       0

    number of velocity cards.......................       0

    number of non-reflecting boundary segments.....       0

    number of b. c. cards..........................       0

    number of b. c. cards with failure.............       0

    number of nodes in joy interface...............       0

    number of nodes/interface for cyclic symmetry..       0

    number of rigid bodies with attachment nodes...       0




    CONTROL CARD 3. Model Size-Loading

    number of load curves..........................       1

    number of nodes for load curve functions.......       0

    number of curves for entities..................       0

    number of concentrated load cards..............     144

    number of pressure load cards..................       0

    number of generalized body force sets..........       0

    number of beam pressure card definitions.......       0

    number of detonation points....................       0

    number of zones for momentum deposition........       0

    number of points in density vs. depth curve....       0

    number of outflow boundary segments............       0

    number of load curve feedback sets.............       0

    number of pressure load sets with masks........       0

    number of spray systems .......................       0

    number of initial stress by cross-sections sets       0

    number of pressure load sets...................       0

    number of ground motion defintions.............       0

    number of ground motions specified at nodes....       0

    number of ground motions specified at points...       0

    number of ground motions specified in bin file.       0

    number of segsets with specified ground motion.       0

    number of soil-structure interfaces for output.       0

    number of aero-acoustic load cards.............       0




    CONTROL CARD 4. Model Size-Constraints and Contact

    number of rigid wall definitions...............       0

    number of number of contact definitions........       0

    number of number of guided cable contacts......       0

    number of shell-solid interfaces...............       0

    number of tie-breaking slide lines.............       0

    number of blocks of tied nodes with fracture ..       0

    number of tied nodal pairs for linking.........       0

    number of constraint cards.....................       0

    number of linear constraint equations..........       0

    number of 1d slidelines........................       0

    number of adaptive constraints.................       0

    number of ALE smoothing constraints............       0

    number of 2d slidelines........................       0

    number of 2d automatic contacts................       0

    number of part IDs for interior contact........       0

    number of beam release sets....................       0

    max. number of nodes in any beam release set...       0




    CONTROL CARD 5. Model Size-Rigid Body Parameters

    number of rigid body constraint sets...........       0

    number of rigid body merge cards...............       0

    number of joint constraints....................       0

    number of joint failure definitions............       0

    number of joint user force definitions.........       0

    number of extra node blocks....................       0

    number of rigid body inertia definitions.......       0

    number of geometric contact entities...........       0

    number of joint stiffness definitions..........       0

    number of rigid body stoppers..................       0

    joint formulation for rigid bodies.............       0
          eq.0:  penalty                                 
          eq.1:  lagrange multiplier                     

    generalized stiffness angle update ............       0
          eq.0:  incremental formulation                 
          eq.1:  total formulation                       

    number of flexible bodies......................       0
          lt.0:  stress recovery active                  

    number of relative damping definitions.........       0

    flag for reading rigid surface contact input...       0
          eq.0:  no rigid surface contact                 
          eq.1:  read rigid surface input                

    number of Hybrid III dummies ..................       0

    number of Hybrid III joint modifications ......       0

    number of interpolation constraints ...........       0

    flag for metalforming fast rigid bodies........       0
          eq.0:  full rigid body treatment               
          eq.1:  fast rigid body treatment               

    number of prescribed rigid body orientations          0




    CONTROL CARD 6. Model Size-Discrete Elements & Seat Belts

    number of spring-damper material types.........       0

    number of local coordinate systems.............       0

    number of discrete springs and dampers.........       0

    number of lumped masses........................       0

    number of parts with added mass................       0

    number of nodes with mass matrix...............       0

    number of seat belt materials..................       0

    number of seat belt elements...................       0

    number of 2d seat belt elements................       0

    number of slip rings...........................       0

    number of retractors...........................       0

    number of sensors..............................       0

    number of pretensioners........................       0

    number of accelerometers.......................       0

    number of discrete rotary inertias.............       0

    number of SPH particles........................       0

    number of groups of SPH particles..............       0




    CONTROL CARD 7. Model Size-Output Control

    number of cross section definitions............       0

    number of nodal groups for resultant forces....       0

    number of interface segments for linking.......       0

    max. number of segments defining rigid wall....       0

    number of power spectrum density databases.....       0




    CONTROL CARD 8. Computation Options-Termination

    termination time...............................    0.1000E+01

    termination cycle..............................       0

    reduction factor for minimum time step (TSMIN).    0.0000E+00

    percent change in energy ratio for termination.    0.0000E+00

    percent change in total mass for termination...    0.0000E+00

    number of nodes for displacement termination...       0

    number of rigid bodies for disp. termination...       0

    number of conditions for contact termination...       0

    number of conditions for ldcurve termination...       0

    ID of sensor_switch  for sensor  termination...         0




    CONTROL CARD 9. Computation Options-Time Step Size 

    initial time step size.........................    0.0000E+00

    time step scale factor.........................    0.9000E+00

    time step size calculation for 4-node shells...       0
          eq.0:  based on longest element side          
          eq.1:  based on longest element diagonal      
          eq.2:  based on bar wave speed max side       
          eq.3:  based on optimal time step size        
                 estimator                              

    shell element minimum time step assignment.....    0.0000E+00

    time step size for mass scaled solution, dt2ms.    0.0000E+00
          lt.0:  minimum time step size permitted       

    load curve number for maximum timestep.........       0

    erosion flag for solid and thick shells........       0
          eq.0:  no                                      
          eq.1:  yes                                     

    limit mass scaling to the first time step......       0
          eq.0:  no                                      
          eq.1:  yes                                     

    scale factor on initial dt to determine dt2ms..    0.0000E+00

    load curve ID for mass scaling ................       0

    flag for selective mass scaling................       0
          eq.0:  off                                     
          eq.1:  on                                      
          eq.2:  on for part subset                      

    consistent constraint logical switch...........       F

    flag for part set for erosion .................       0
          eq.0:  no                                      
          eq.1:  yes                                     

    mass scale factor for alternate sms scheme.....    0.0000E+00



    CONTROL CARD 10. Computation Options-Loading

    x-ground acceleration..........................       0
          eq.0:  no                                      
          eq.1:  yes                                     

    y-ground acceleration..........................       0
          eq.0:  no                                      
          eq.1:  yes                                     

    z-ground acceleration..........................       0
          eq.0:  no                                      
          eq.1:  yes                                     

    x-angular velocity.............................       0
          eq.0:  no                                      
          eq.1:  yes                                     

    y-angular velocity.............................       0
          eq.0:  no                                      
          eq.1:  yes                                     

    z-angular velocity.............................       0
          eq.0:  no                                      
          eq.1:  yes                                     

    number of materials receiving body forces......       0
          eq.0:  all                                     
          eq.n:  subset of n materials                   

    flag for user defined loading subroutine.......       0
          lt.0:  magnitude=# of input constants          
          eq.0:  no                                      
          eq.1:  yes, but no additional input            

    explosive initiation option....................       0
          eq.0:  lighting times based on distance        
          eq.1:  lighting times include geometric        
                 effects for wave shapers, etc.          

    sub-sea structural analysis option.............       0
          eq.0:  off                                     
          eq.1:  on with 1 point integration             
          eq.4:  on with 4 point integration             
    contact pressure calculation option............       0
          eq.0:  off (default)                           
          eq.1:  on                                      



    CONTROL CARD 11. Computation Options-Input Control

    initialization of velocities...................       0
          eq.0: velocities are initialized to zero      
          eq.1: initial velocities are read in          
          eq.2: all velocities have same input value    
          eq.3: as 2 but exempted nodes are defined     
          eq.4: box option
          eq.5: generation with arbitrary numbering     
          eq.6: rotational and translational via IDs

    arbitrary node and element numbering flag .....       1

    constitute, eqs-of-state, cross-section option.       0
          eq.0:  off                                     
          eq.1:  separate input is required for each     

    specified nodal coordinate format..............    e20.0

    flag for thermodynamic control volume input....       0

    overpressure option (eq.0 no,  eq.1 yes).......       0

    number of part (de) activation sensors.........       0

    number of rigid body initial velocity sets.....       0



    CONTROL CARD 12. Computation Options-Elements  

    warped shell angle in deg.  for error message..    0.2000E+02

    iterative plane stress plasticity for shells...       1
          eq.1:  vectorized with three iterates         
          eq.2:  nonvectorized iterations as needed     
          eq.3:  noniterative radial return             

    Calculation option for F for solid elements....       0
          eq.0:  default, explicit=1, implicit=2        
          eq.1:  integrate incrementally                
          eq.2:  compute directly                       

    flag for automatic sorting ....................       0
          eq. 1:  on for triangular shells              
          eq.11:  on for triangular shells and solids   
          eq.10:  on for solids (tets and pentas)       

    formulation for sorted trianglar shells .......       0
          eq. 0:  C0 triangle, type  4                   
          eq. 1:  DKT triangle type 17                   

    hughes-liu normal computation options..........      -1
          eq.-2: unique nodal fibers                    
          eq.-1: compute normals each cycle
          eq.0 : default set to -1     
          eq.1 : compute on restart
          eq.n : compute on restart + each nth cycle     

    thickness modification for membrane strains....       0
          eq.0:  no                                     
          eq.1:  4-node shell only                      
          eq.2:  8-node thick shell types 1 & 2         
          eq.3:  update both 4 & 8 node thickness       
          eq.4:  same as option 1 but the elastic       
                 strains are neglected                  

    shell part set IDs (pids) for thickness update.       0
          lt.0: exclude pids if update option is active  
          eq.0: include  all if update option is active  
          gt.0: include pids if update option is active  

    shell formulation basis........................       2
          eq. 1: hughes-liu                              
          eq. 2: belytschko-tsay                         
          eq. 3: bciz                                    
          eq. 4: c0-triangular element                   
          eq. 5: membrane element                        
          eq. 6: s/r hughes-liu                          
          eq. 7: s/r co-rotational hughes-liu            
          eq. 8: belytschko-leviathan shell              
          eq. 9: fully integrated membrane               
          eq.10: belytschko-wong-chiang                  
          eq.11: fast hughes-liu                         

    # of user specified beam integration rules.....       0

    max number of integration points reqd (beams) .       0

    # of user specified shell integration rules....       1

    max number of integration points reqd (shells).      16

    warping stiffness for Belytschko-Tsay shells...       2
          eq.1:  Belytschko-Wong-Chiang modification    
          eq.2:  original Belytschko-Tsay               

    projection method for warping stiffness........       0
          eq.0:  drill                                   
          eq.1:  full                                    

    reference configuration .......................       0
          eq. 0:  no                                      
          eq. 1:  yes, active for all airbags             
          eq. 2:  yes, reference geometry Dt              
          eq.10:  yes, active for foam elements           
          eq.11:  options 1 and 10 active                 
          eq.12:  options 2 and 10 active                 

    invariant node numbering ......................       2
          eq.-2  on all shell elements except tri#4      
          eq. 1  off (default)                           
          eq. 2  on for all shell elements               
          eq. 3  on for solid elements with              
                 anisotropic material                    
          eq. 4  on for all shell elements and solid     
                 elements with anisotropic material      

    activation time for reference geometry ........    0.0000E+00

    scale factor for shell rotary mass ............    0.1000E+01

    integration for shell through thickness .......       0
          eq.0:  Gauss                                   
          eq.1:  Lobatto                                 

    use laminated shell theory for material .......       0
    types 22, 54, 55, and 76:                      
          eq.0:  no                                      
          eq.1:  yes                                     

    flag for shell offset vectors .................       0
          eq. 0:  off                                   
          eq. 1:  on                                    

    flag of offset shell contact surface . ........       0
          eq. 0:  off                                   
          eq. 1:  on                                    

    number of point constraints between shells ....       0

    flag for input of beam orientation vectors ....       0

    flag for input of beam offset vectors .........       0

    flag for input of beam warpage scalar nodes....       0

    flag for 12-node shell for thermal ............       0

    local shell coordinate system in type 6 shell..       1
          eq. 0:  uniform local coordinate system       
          eq. 1:  variable local coordinate system      

    Jacobian check on 1 point shells...............       0
          eq. 0:  off                                   
          eq. 1:  on -delete distorted element          
          eq. 2:  on -terminate                         
          eq. n:  terminate when n elements are deleted 

    Jacobian check on 4 point shells...............       0
          eq. 0:  off                                   
          eq. 1:  on -delete distorted element          
          eq. 2:  on -terminate                         
          eq. n:  terminate when n elements are deleted 

    part set ID for Jacobian checks................       0

    number of shell  part IDs for termination......       0
          eq. 0:  inactive                              
          gt. 0:  # part IDs where # failed are defined 

    number of solid  part IDs for termination......       0
          eq. 0:  inactive                              
          gt. 0:  # part IDs where # failed are defined 

    integration rule for quadratic tetrahedrons....       4
          eq. 4:  4 point integration formula           
          eq. 5:  5 point integration formula           

    integration rule for quadratic shells..........       2
          eq. 2:  2 point integration in plane          
          eq. 3:  3 point integration in plane          

    stress output for solid element spotwelds......       0
          eq. 1:  global (default)                      
          eq. 2:  local                                 

    # of solid elements with death times...........       0

    # of beam  elements with death times...........       0

    # of shell elements with death times...........       0

    # of thick shell elements with death times.....       0

    number of solid elements with initial stress ..       0

    number of sph   elements with initial stress ..       0

    number of beam  elements with initial stress ..       0

    number of shell elements with initial stress ..       0

    number of shell elements with initial strain ..       0

    maximum number of tensor data .................       0

    maximum number of history variables ...........       0

    no. of thick shell elems with initial stress ..       0

    number of solid elements with initial strain ..       0




    CONTROL CARD 13. Computation Options-Materials

    hourglass formulation..........................       0
          eq.0   LS-DYNA versions 940 and after         
          eq.1   LS-DYNA versions 936 and before        

    hourglass models                              
          eq.1: standard viscous form                  
          eq.2: flanagan-belytschko viscous form       
                1pt volume integration for solids      
          eq.3: flanagan-belytschko viscous form       
                exact volume integration for solids    
          eq.4: flanagan-belytschko stiffness form     
                1pt volume integration for solids      
          eq.5: flanagan-belytschko stiffness form     
                exact volume integration for solids    
          eq.6: bindeman-belytschko stiffness form     
                for 2d and 3d solid elements only      
          eq.9: puso stiffness form for 3d solid       
                elements only                          

    hourglass model (default)......................       0

    hourglass coefficient (default)................    0.0000E+00

    bulk viscosity type (default)..................       0
          eq.-2: standard +types 2,4,10,16,17 shells+IE 
          eq.-1: standard +types 2,4,10,16,17 shells    
          eq.+1: standard                               

    quadratic bulk viscosity coefficient...........    0.0000E+00

    linear bulk viscosity coefficient..............    0.0000E+00

    bulk viscosity type for beams..................       0
          eq.+1: standard  
          eq.+2: standard + IE 

    flag for rayleigh damping input................       0
          eq.0:  off (default)                          
          eq.1:  on                                     

    flag for rigid/deformable material switching...       0
          eq.1:  off (default)                          
          eq.2:  on                                     
          eq.3:  on and automatic switching             

    thermal effects option.........................       0
          eq.0:  no thermal effects                      
          eq.n:  nodal temps scaled by load ftn -n-      
          eq.-1: coupled thermal mechanical analysis     
          eq.-2: temperature data input option 2         
          eq.-3: thermal solution                        
          eq.-4: Read binary temperature file            
          eq.-9999: temperature data input option 1      

    thermal curve ID used for dynamic relaxation...       0

    super plastic forming input option.............       0
          eq.0:  skip input                              
          eq.1:  read superplastic input section         

    objective stress update for large Dt...........       1
          eq.0:  off (default)                           
          eq.1:  on globally                             
          eq.2:  on for part subset                      

    default contact parameters input option........       0
          eq.0:  no                                      
          eq.1:  yes                                     

    number of reinforcement cards for mat 84&85....       0

    output interval for aea_crack database.........    0.0000E+00

    number of non local materials..................       0

    neighbours arrays oversized of (%).............       0

    number of parts defined for adaptive failure...       0

    number of elements with specified temperature..       0

    number of parts with spotweld rupture stress...       0

    number of parts with spotweld rupture parametr.       0

    number of spotweld lists.......................       0



    CONTROL CARD 14. Computation Options-Damping

    load curve specifying system damping...........       0
          eq.-1: system damping by material             
          eq. n: load curve n defines system damping    

    optional constant for system damping...........    0.0000E+00

    system damping scale factor for x-translation..    0.1000E+01

    system damping scale factor for y-translation..    0.1000E+01

    system damping scale factor for z-translation..    0.1000E+01

    system damping scale factor for x-rotation.....    0.1000E+01

    system damping scale factor for y-rotation.....    0.1000E+01

    system damping scale factor for z-rotation.....    0.1000E+01

    stress initialization flag ....................       0
          eq.-1:  dynamic relaxation (debug option)       
          eq.0:   off                                     
          eq.1:   dynamic relaxation                      
          eq.2:   deformed geometry                       
          eq.3:   dynamic relaxation with part set ID     
          eq.-999:off-not activated by load curves        

    convergence check interval (dynamic relaxation)     250

    convergence tolerance for dynamic relaxation...    0.1000E-02

    dynamic relaxation factor......................    0.9950E+00

    termination time for dynamic relaxation........    0.0000E+00
          eq.0.0:  convergence terminates relaxation     
          gt.0.0:  termination at specified time         
                   unless convergence is attained        

    scale factor for dyn relax time step...........    0.9000E+00

    automatic determination of dr factors..........       0
          eq.0:  off (default)                          
          eq.1:  on                                     

    convergence tolerance for above option.........    0.0000E+00

    active part set ID for dynamic relaxation .....       0



    CONTROL CARD 15. Computation Options-Contact

    scale factor for contact interface penalties...    0.1000E+00

    scale factor for rigid wall penalties..........    0.0000E+00

    flag to activate MADYMO contact coupling.......       0
          eq.0:  inactive                              
          eq.1:  active                                

    track initial penetrations in auto contacts....       0
          eq.0:  no, move node to contact surface      
          eq.1:  yes, initial penetrations remain      

    ignore initial separations in tied contacts....       0
          eq.0:  no, eliminate gaps most accurate      
          eq.1:  yes, may lock rotations               

    contact initial penetration check option.......       1
          eq.1:  off (default)                           
          eq.2:  on                                      

    thickness considered in type 3, 5 or 10 contact       0
          eq.0:  off                                     
          eq.1:  on, but rigid bodies excluded           
          eq.2:  on, rigid bodies are included           

    penalty stiffness option.......................       0
          eq.1:  minimum master/slave value             
          eq.2:  master segment stiffness (old way)     
          eq.3:  slave node stiffness                   
          eq.4:  slave node area/mass weighted          
          eq.5:  like 4 but k proportional to 1/thick   

    thickness changes considered in type 4 contact.       0
          eq.0:  no                                      
          eq.1:  yes                                     

    automatic reorientation option.................       1
          eq.1:  on for automatic contact definitions   
          eq.2:  on                                     
          eq.3:  off                                    

    memory allocation-user contact surface control        0
          gt.0:  memory per interface passed to user    

    memory allocation-user contact surface frict...       0
          gt.0:  memory per interface passed to user    

    number of time steps between contact searching.       0
          eq.0:  LS-DYNA chooses value                  

    intermittent searching in type 3 contact.......       0
          eq.0:  off (default)                           
          eq.1:  on                                      

    release factor for extra searching option......    0.4000E+01

    treatment of nodes in eroding contact..........       0
          eq.0:  delete from calculation                
          eq.1:  keep nodes of eroded solids            
          eq.2:  keep nodes of eroded solids & shells   

    calculation of frictional sliding energy.......       0
          eq.0:  do not calculate                       
          eq.1:  calculate                              

    shell thickness in single surface contact......       0
          eq.0:  use characteristic shell dimension     
          eq.1:  use actual shell thickness             

    time step size override for eroding contact....       0
          eq.0:  contact time size may control dt        
          eq.1:  contact is not considered for dt        

    number of automatic positioning definitions....       0

    print slave node/segment in spotweld contact...       0
          eq.0:  no                                      
          eq.1:  yes, in D3HSP file                     

    option for unconstrained spotweld node/face....       0
          eq.0:  ignore                                 
          eq.1:  terminate                              
          eq.2:  delete weld and continue               

    delete spotweld if tied to failed shell........       0
          eq.0:  no                                     
          eq.1:  yes                                    

    read in friction table for automatic contacts..       0
          eq.0:  no                                     
          ne.0:  number of part pair defined for table  

    read in spotweld failure table.................       0
          eq.0:  no                                     
          ne.0:  number of part pair defined for table  

    contact thickness scaling option for welds.....    0.0000E+00
          eq.0.0: inactive                              
          gt.0.0: scale factor on thickness             

    beam spotweld radius scale factor for thinning.    0.0000E+00
          eq.0.0: inactive                              
          gt.0.0: scale factor on radius                

    read in smooth contact flags...................       0
          eq.0:  no
          eq.1:  yes
          Warning: in Shared Memory Program smooth option only 
          available for Forming type  contact

    flag for eliminating faces on symmetry planes..       0
          eq.0:  use all faces                          
          eq.1:  delete faces from contact              

    spotweld tension scaling load curve............       0
    spotweld compression scaling load curve........       0
    spotweld direction scaling table.(tension).....       0
    spotweld direction scaling table (shear)  .....       0
          eq.0:  table for tension scaling is used      
    spotweld print flag (on=1).....................       0

    number of contact volume definitions...........       0

    flag to use one way node to surface erosion....       0

    flag for implicit rigidwall gap stiffness......       1

          eq.1:  add initial gap stiffness              
          eq.2:  do not add gap stiffness               

    death time for gap stiffness...................    0.1000E-01

    penalty scale factor for rigid walls...........    0.1000E+01

    flag for covariant contact formulation.........       0

          eq.0:  covariant formulation not used         
          eq.1:  covariant formulation used             

    flag for offsetting thick thermal contact      
    surfaces in the thermal contacts...............       0

          eq.0:  no offset, if thickness is not included
                 contact will act on shell mid-surface  
          eq.1:  offsets are applied so that contact    
                 always act on the shell outer surfaces 

    flag for shell segment edge shape..............       0
          eq.0:  shell edges assumed round (default)    
          eq.1:  shell edges assumed square             

    stiffness calculation for segment based contact       0
          eq.0:  use material density (default)         
          eq.1:  use nodal masses                       

    flag for consistent thermal contact algorithm..       1
          lt.0:  conduction evenly distributed (pre-R4) 
          eq.1:  conduction weighted by shape functions,
                 reduced integration (default)          
          eq.2:  conduction weighted by shape functions,
                 full integration                       




    CONTROL CARD 16. Computation Options-Parallel

    number of cpus for parallel computations.......       1

    parallel right hand side assembly..............       0
          eq.0:  on  (default)                          
          eq.1:  off                                    

    flag for automatic subcycling..................       0
          eq.0:  off (default)                          
          eq.1:  on                                     

    flag for repeatability in parallel solution....       0
          eq.1:  on  (ordered RHS summation-slower)     
          eq.2:  off (default)                          

    use memory to parallelize repeatability option.       0
          eq.0:  off                                    
          eq.1:  on                                     




    CONTROL CARD 17. Computation Options-Coupling

    length conversion factor coupling..............    0.1000E+01

    time conversion factor coupling................    0.1000E+01

    force conversion factor coupling...............    0.1000E+01

    material repositioning flag....................       0
          eq.0:  off                                    
          eq.1:  input data defines repositioning       
          eq.2:  no repositioning of defined nodes      

    Flag to flip X-coordinates.....................       0

    Flag to flip Y-coordinates.....................       0

    Flag to flip Z-coordinates.....................       0

    Idle time for LS-DYNA..........................    0.0000E+00

    Implicit coupling for springback...............       0
          eq.0:  off (default)                          
          eq.1:  on                                     
          eq.2:  seamless springback                    

    DYNAIN output format...........................       0
          eq.0:  ascii                                  
          eq.1:  binary                                 
          eq.2:  ascii and binary                       

    Two sided acoustic coupling input flag.........       0
          eq.0:  off                                    
          eq.1:  on                                     

    Coupling with USA..............................       0
          eq.0:  off (default)                          
          eq.1:  on                                     

    Number of steps for CAL3D/MADYMO3D subcycling..       1

    Number of MCOL coupled rigid bodies............       0

    Number of vehicles to be initialized...........       0

    Coupling with CFD..............................       0
          eq.0:  off (default)                           
          eq.1:  FAST3D                                  
          eq.2:  boundary element method                 




    CONTROL CARD 18. Computation Options-Output Control

    printout of node, element, velocity input data.       0
          eq.0:  on                                      
          eq.1:  off                                     

    time zero printout of element time step size...       0
          eq.0:  no printout                             
          eq.1:  print dt for each element at t=0        

    problem status report interval in printer file.     100

    number of cycles between restart dumps.........99999999

    number of cycles between running restart dumps.99999999

    number of files to rewrite running restart ....       1

    node and element printout suppression..........       0
          eq.1:  nodal data is not echoed                
          eq.2:  element data is not echoed              
          eq.3:  node and element data is not echoed     
    debug information in messag file option........       0
          eq.0:  no                                      
          eq.1:  yes                                     
    update of beam reference nodes.................       0
          eq.0:  off                                     
          eq.1:  on-unique reference nodes required      
    averaged acceleration-print/time history files.       0
          eq.0:  no average (default)                   
          eq.1:  averaged between output intervals      
          eq.2:  user defined filtering                 
    output interval for interface file.............    0.5000E-02
    default print flag for the RBDOUT/MATSUM files        0
          eq.0: RBDOUT and MATSUM       
          eq.1: RBDOUT only             
          eq.2: MATSUM only             
          eq.3: no output               
    include eroded and lumped mass in MATSUM ......       0
          eq.0:  no                                     
          eq.1:  yes                                    
    include 10-node connectivities in D3PLOT ......       2
          eq.1:  yes                                     
          eq.2:  no                                      
    write spring forward database at termination...       0
          eq.0:  no                                      
          eq.1:  include all deformable nodes            
          eq.2:  include nodes of material subset        
    d3plot and d3thdt binary output format.........       0
          eq.0 default                                   
          eq.1 32ieee (Cray and NEC only)                
    flush output file interval.....................    5000
    output interval for part database..............    0.0000E+00
    interval via load curve for part database......       0
    number of part blocks..........................       0
    Maximum number of messages.....................       0
    Print flag for digitized curve data............       0



    CONTROL CARD 19. Computation Options-Output Energy

    hourglass energy calculation...................       0
          eq.1:  off (default)                          
          eq.2:  on                                     

    rigid wall energy calculations.................       1
          eq.1:  off (default)                          
          eq.2:  on                                     

    contact energy calculation.....................       2
          eq.1:  off                                    
          eq.2:  on                                     

    flag for rayleigh damping energy calculations..       0
          eq.1:  off (default)                          
          eq.2:  on                                     

    flag for material energy in D3THDT file........       2
          eq.1:  off                                    
          eq.2:  on  (default)                          




    CONTROL CARD 20. Computation Options LS-POST Database

    time step between dumps of complete state data.    0.5000E-01

    output interval for interface force database...    0.5000E-01

    time step between dumps of time history data...    0.0000E+00

    number of nodal printout blocks................      36

    number of solid element printout blocks........       0

    number of beam element printout blocks.........       0

    number of discrete element printout blocks.....       0

    number of seatbelt element printout blocks.....       0

    number of shell element printout blocks........      25

    number of thick shell element printout blocks..       0

    load curve-interval between state data dumps...       0

    behavior of state data dump curve..............       1
          eq.1:  load curve value added to current time 
          eq.2:  plot time T=current t+curve at T       
          eq.3:  plot at each ordinate point            

    load curve-interval between force data dumps...       0

    load curve-interval between history data dumps.       0

    flag, user output into shell resultant vector..       0
          eq.1:  off (default)                          
          eq.2:  on, user subroutine is called           

    number of subsystems for SSSTAT file ..........       0

    behavior of intfor data curve..................       1
          eq.1:  load curve value added to current time 
          eq.2:  plot time T=current t+curve at T       
          eq.3:  plot at each ordinate point            




    CONTROL CARD 21. Computation Options LS-POST Database

    flag to write ls-post database during dyn rel..       0
          eq.0:  no database write (default)            
          eq.1:  write database at convergence check    
          eq.n:  write database at nth check            

    number of extra history variables for solids...       0

    number of integration points output/solid .....       1

    number of extra history var/int.pt for shells..       0

    number of integration points output/shell .....       3
          lt.0:  also output 4 points in plane          

    flag for including strain tensor in database...       1
          eq.0:  exclude (default)                      
          eq.1:  include strains (solid and shells)     

    flag for including stress tensor in database...       1
          eq.1:  include (default)                      
          eq.2:  exclude                                

    flag for including effective plastic strain....       1
[...]
     Number of iterations to converge         =    2
     Number of stiffness reformations         =    0
     Number of right hand side evaluations    =    3
     Initial energy norm                      =  1.3778E-05
     Final energy norm                        =  4.6635E-11
     Final displacement norm                  =  2.0883E-15
     Required tolerance                       =  4.0299E-12
     322 t 8.0000E-01 dt 1.00E-02 write d3plot file

 BEGIN implicit statics  time step      81                           
 ============================================================
                time =  8.10000E-01
   current step size =  1.00000E-02
 Iteration:   1     *|du|/|u| =  1.2323671E-02     *Ei/E0 =  9.9639013E-01
 Iteration:   2     *|du|/|u| =  2.3039238E-05     *Ei/E0 =  3.5386973E-06

 Equilibrium convergence summary for time step      81 at time =  8.1000000E-01
     Number of iterations to converge         =    2
     Number of stiffness reformations         =    0
     Number of right hand side evaluations    =    3
     Initial energy norm                      =  1.3776E-05
     Final energy norm                        =  4.8927E-11
     Final displacement norm                  =  2.1927E-15
     Required tolerance                       =  4.1309E-12

 BEGIN implicit statics  time step      82                           
 ============================================================
                time =  8.20000E-01
   current step size =  1.00000E-02
 Iteration:   1     *|du|/|u| =  1.2172836E-02     *Ei/E0 =  9.9629999E-01
 Iteration:   2     *|du|/|u| =  2.3313901E-05     *Ei/E0 =  3.7105510E-06

 Equilibrium convergence summary for time step      82 at time =  8.2000000E-01
     Number of iterations to converge         =    2
     Number of stiffness reformations         =    0
     Number of right hand side evaluations    =    3
     Initial energy norm                      =  1.3775E-05
     Final energy norm                        =  5.1303E-11
     Final displacement norm                  =  2.3009E-15
     Required tolerance                       =  4.2331E-12

 BEGIN implicit statics  time step      83                           
 ============================================================
                time =  8.30000E-01
   current step size =  1.00000E-02
 Iteration:   1     *|du|/|u| =  1.2025629E-02     *Ei/E0 =  9.9620876E-01
 Iteration:   2     *|du|/|u| =  2.3588333E-05     *Ei/E0 =  3.8886386E-06

 Equilibrium convergence summary for time step      83 at time =  8.3000000E-01
     Number of iterations to converge         =    2
     Number of stiffness reformations         =    0
     Number of right hand side evaluations    =    3
     Initial energy norm                      =  1.3774E-05
     Final energy norm                        =  5.3765E-11
     Final displacement norm                  =  2.4129E-15
     Required tolerance                       =  4.3366E-12

 BEGIN implicit statics  time step      84                           
 ============================================================
                time =  8.40000E-01
   current step size =  1.00000E-02
 Iteration:   1     *|du|/|u| =  1.1881921E-02     *Ei/E0 =  9.9611645E-01
 Iteration:   2     *|du|/|u| =  2.3862533E-05     *Ei/E0 =  4.0731041E-06

 Equilibrium convergence summary for time step      84 at time =  8.4000000E-01
     Number of iterations to converge         =    2
     Number of stiffness reformations         =    0
     Number of right hand side evaluations    =    3
     Initial energy norm                      =  1.3772E-05
     Final energy norm                        =  5.6316E-11
     Final displacement norm                  =  2.5290E-15
     Required tolerance                       =  4.4413E-12

 BEGIN implicit statics  time step      85                           
 ============================================================
                time =  8.50000E-01
   current step size =  1.00000E-02
 Iteration:   1     *|du|/|u| =  1.1741587E-02     *Ei/E0 =  9.9602306E-01
 Iteration:   2     *|du|/|u| =  2.4136497E-05     *Ei/E0 =  4.2640929E-06

 Equilibrium convergence summary for time step      85 at time =  8.5000000E-01
     Number of iterations to converge         =    2
     Number of stiffness reformations         =    0
     Number of right hand side evaluations    =    3
     Initial energy norm                      =  1.3771E-05
     Final energy norm                        =  5.8956E-11
     Final displacement norm                  =  2.6491E-15
     Required tolerance                       =  4.5473E-12
     342 t 8.5000E-01 dt 1.00E-02 write d3plot file

 BEGIN implicit statics  time step      86                           
 ============================================================
                time =  8.60000E-01
   current step size =  1.00000E-02
 Iteration:   1     *|du|/|u| =  1.1604511E-02     *Ei/E0 =  9.9592858E-01
 Iteration:   2     *|du|/|u| =  2.4410224E-05     *Ei/E0 =  4.4617515E-06

 Equilibrium convergence summary for time step      86 at time =  8.6000000E-01
     Number of iterations to converge         =    2
     Number of stiffness reformations         =    0
     Number of right hand side evaluations    =    3
     Initial energy norm                      =  1.3770E-05
     Final energy norm                        =  6.1689E-11
     Final displacement norm                  =  2.7734E-15
     Required tolerance                       =  4.6544E-12

 BEGIN implicit statics  time step      87                           
 ============================================================
                time =  8.70000E-01
   current step size =  1.00000E-02
 Iteration:   1     *|du|/|u| =  1.1470580E-02     *Ei/E0 =  9.9583302E-01
 Iteration:   2     *|du|/|u| =  2.4683710E-05     *Ei/E0 =  4.6662280E-06

 Equilibrium convergence summary for time step      87 at time =  8.7000000E-01
     Number of iterations to converge         =    2
     Number of stiffness reformations         =    0
     Number of right hand side evaluations    =    3
     Initial energy norm                      =  1.3769E-05
     Final energy norm                        =  6.4516E-11
     Final displacement norm                  =  2.9019E-15
     Required tolerance                       =  4.7628E-12

 BEGIN implicit statics  time step      88                           
 ============================================================
                time =  8.80000E-01
   current step size =  1.00000E-02
 Iteration:   1     *|du|/|u| =  1.1339687E-02     *Ei/E0 =  9.9573638E-01
 Iteration:   2     *|du|/|u| =  2.4956954E-05     *Ei/E0 =  4.8776715E-06

 Equilibrium convergence summary for time step      88 at time =  8.8000000E-01
     Number of iterations to converge         =    2
     Number of stiffness reformations         =    0
     Number of right hand side evaluations    =    3
     Initial energy norm                      =  1.3767E-05
     Final energy norm                        =  6.7440E-11
     Final displacement norm                  =  3.0348E-15
     Required tolerance                       =  4.8725E-12

 BEGIN implicit statics  time step      89                           
 ============================================================
                time =  8.90000E-01
   current step size =  1.00000E-02
 Iteration:   1     *|du|/|u| =  1.1211728E-02     *Ei/E0 =  9.9563866E-01
 Iteration:   2     *|du|/|u| =  2.5229952E-05     *Ei/E0 =  5.0962327E-06

 Equilibrium convergence summary for time step      89 at time =  8.9000000E-01
     Number of iterations to converge         =    2
     Number of stiffness reformations         =    0
     Number of right hand side evaluations    =    3
     Initial energy norm                      =  1.3766E-05
     Final energy norm                        =  7.0461E-11
     Final displacement norm                  =  3.1722E-15
     Required tolerance                       =  4.9834E-12

 BEGIN implicit statics  time step      90                           
 ============================================================
                time =  9.00000E-01
   current step size =  1.00000E-02
 Iteration:   1     *|du|/|u| =  1.1086608E-02     *Ei/E0 =  9.9553986E-01
 Iteration:   2     *|du|/|u| =  2.5502702E-05     *Ei/E0 =  5.3220633E-06

 Equilibrium convergence summary for time step      90 at time =  9.0000000E-01
     Number of iterations to converge         =    2
     Number of stiffness reformations         =    0
     Number of right hand side evaluations    =    3
     Initial energy norm                      =  1.3765E-05
     Final energy norm                        =  7.3584E-11
     Final displacement norm                  =  3.3140E-15
     Required tolerance                       =  5.0955E-12
     362 t 9.0000E-01 dt 1.00E-02 write d3plot file

 BEGIN implicit statics  time step      91                           
 ============================================================
                time =  9.10000E-01
   current step size =  1.00000E-02
 Iteration:   1     *|du|/|u| =  1.0964231E-02     *Ei/E0 =  9.9543999E-01
 Iteration:   2     *|du|/|u| =  2.5775202E-05     *Ei/E0 =  5.5553166E-06

 Equilibrium convergence summary for time step      91 at time =  9.1000000E-01
     Number of iterations to converge         =    2
     Number of stiffness reformations         =    0
     Number of right hand side evaluations    =    3
     Initial energy norm                      =  1.3763E-05
     Final energy norm                        =  7.6809E-11
     Final displacement norm                  =  3.4605E-15
     Required tolerance                       =  5.2088E-12

 BEGIN implicit statics  time step      92                           
 ============================================================
                time =  9.20000E-01
   current step size =  1.00000E-02
 Iteration:   1     *|du|/|u| =  1.0844509E-02     *Ei/E0 =  9.9533904E-01
 Iteration:   2     *|du|/|u| =  2.6047449E-05     *Ei/E0 =  5.7961469E-06

 Equilibrium convergence summary for time step      92 at time =  9.2000000E-01
     Number of iterations to converge         =    2
     Number of stiffness reformations         =    0
     Number of right hand side evaluations    =    3
     Initial energy norm                      =  1.3762E-05
     Final energy norm                        =  8.0139E-11
     Final displacement norm                  =  3.6117E-15
     Required tolerance                       =  5.3234E-12

 BEGIN implicit statics  time step      93                           
 ============================================================
                time =  9.30000E-01
   current step size =  1.00000E-02
 Iteration:   1     *|du|/|u| =  1.0727356E-02     *Ei/E0 =  9.9523702E-01
 Iteration:   2     *|du|/|u| =  2.6319440E-05     *Ei/E0 =  6.0447098E-06

 Equilibrium convergence summary for time step      93 at time =  9.3000000E-01
     Number of iterations to converge         =    2
     Number of stiffness reformations         =    0
     Number of right hand side evaluations    =    3
     Initial energy norm                      =  1.3760E-05
     Final energy norm                        =  8.3575E-11
     Final displacement norm                  =  3.7678E-15
     Required tolerance                       =  5.4392E-12

 BEGIN implicit statics  time step      94                           
 ============================================================
                time =  9.40000E-01
   current step size =  1.00000E-02
 Iteration:   1     *|du|/|u| =  1.0612690E-02     *Ei/E0 =  9.9513393E-01
 Iteration:   2     *|du|/|u| =  2.6591174E-05     *Ei/E0 =  6.3011621E-06

 Equilibrium convergence summary for time step      94 at time =  9.4000000E-01
     Number of iterations to converge         =    2
     Number of stiffness reformations         =    0
     Number of right hand side evaluations    =    3
     Initial energy norm                      =  1.3759E-05
     Final energy norm                        =  8.7121E-11
     Final displacement norm                  =  3.9287E-15
     Required tolerance                       =  5.5562E-12

 BEGIN implicit statics  time step      95                           
 ============================================================
                time =  9.50000E-01
   current step size =  1.00000E-02
 Iteration:   1     *|du|/|u| =  1.0500432E-02     *Ei/E0 =  9.9502976E-01
 Iteration:   2     *|du|/|u| =  2.6862647E-05     *Ei/E0 =  6.5656621E-06

 Equilibrium convergence summary for time step      95 at time =  9.5000000E-01
     Number of iterations to converge         =    2
     Number of stiffness reformations         =    0
     Number of right hand side evaluations    =    3
     Initial energy norm                      =  1.3757E-05
     Final energy norm                        =  9.0778E-11
     Final displacement norm                  =  4.0947E-15
     Required tolerance                       =  5.6744E-12
     382 t 9.5000E-01 dt 1.00E-02 write d3plot file

 BEGIN implicit statics  time step      96                           
 ============================================================
                time =  9.60000E-01
   current step size =  1.00000E-02
 Iteration:   1     *|du|/|u| =  1.0390507E-02     *Ei/E0 =  9.9492453E-01
 Iteration:   2     *|du|/|u| =  2.7133858E-05     *Ei/E0 =  6.8383688E-06

 Equilibrium convergence summary for time step      96 at time =  9.6000000E-01
     Number of iterations to converge         =    2
     Number of stiffness reformations         =    0
     Number of right hand side evaluations    =    3
     Initial energy norm                      =  1.3756E-05
     Final energy norm                        =  9.4549E-11
     Final displacement norm                  =  4.2657E-15
     Required tolerance                       =  5.7939E-12

 BEGIN implicit statics  time step      97                           
 ============================================================
                time =  9.70000E-01
   current step size =  1.00000E-02
 Iteration:   1     *|du|/|u| =  1.0282843E-02     *Ei/E0 =  9.9481823E-01
 Iteration:   2     *|du|/|u| =  2.7404803E-05     *Ei/E0 =  7.1194428E-06

 Equilibrium convergence summary for time step      97 at time =  9.7000000E-01
     Number of iterations to converge         =    2
     Number of stiffness reformations         =    0
     Number of right hand side evaluations    =    3
     Initial energy norm                      =  1.3755E-05
     Final energy norm                        =  9.8435E-11
     Final displacement norm                  =  4.4420E-15
     Required tolerance                       =  5.9146E-12

 BEGIN implicit statics  time step      98                           
 ============================================================
                time =  9.80000E-01
   current step size =  1.00000E-02
 Iteration:   1     *|du|/|u| =  1.0177372E-02     *Ei/E0 =  9.9471086E-01
 Iteration:   2     *|du|/|u| =  2.7675480E-05     *Ei/E0 =  7.4090458E-06

 Equilibrium convergence summary for time step      98 at time =  9.8000000E-01
     Number of iterations to converge         =    2
     Number of stiffness reformations         =    0
     Number of right hand side evaluations    =    3
     Initial energy norm                      =  1.3753E-05
     Final energy norm                        =  1.0244E-10
     Final displacement norm                  =  4.6236E-15
     Required tolerance                       =  6.0365E-12

 BEGIN implicit statics  time step      99                           
 ============================================================
                time =  9.90000E-01
   current step size =  1.00000E-02
 Iteration:   1     *|du|/|u| =  1.0074025E-02     *Ei/E0 =  9.9460242E-01
 Iteration:   2     *|du|/|u| =  2.7945888E-05     *Ei/E0 =  7.7073405E-06

 Equilibrium convergence summary for time step      99 at time =  9.9000000E-01
     Number of iterations to converge         =    2
     Number of stiffness reformations         =    0
     Number of right hand side evaluations    =    3
     Initial energy norm                      =  1.3752E-05
     Final energy norm                        =  1.0656E-10
     Final displacement norm                  =  4.8105E-15
     Required tolerance                       =  6.1597E-12

 dt of cycle     101 is controlled by shell      element     119

 time...........................   9.90000E-01
 time step......................   1.00000E-02
 kinetic energy.................   0.00000E+00
 internal energy................   6.74748E-02
 spring and damper energy.......   1.00000E-20
 system damping energy..........   0.00000E+00
 sliding interface energy.......   0.00000E+00
 external work..................   6.74749E-02
 eroded kinetic energy..........   0.00000E+00
 eroded internal energy.........   0.00000E+00
 eroded hourglass energy........   0.00000E+00
 total energy...................   6.74748E-02
 total energy / initial energy..   1.00000E+00
 energy ratio w/o eroded energy.   1.00000E+00
 global x velocity..............   0.00000E+00
 global y velocity..............   0.00000E+00
 global z velocity..............   0.00000E+00
 cpu time per zone cycle............    247933 nanoseconds
 average cpu time per zone cycle....     70185 nanoseconds
 average clock time per zone cycle..     79001 nanoseconds


 BEGIN implicit statics  time step     100                           
 ============================================================
                time =  1.00000E+00
   current step size =  1.00000E-02
 Iteration:   1     *|du|/|u| =  9.9727399E-03     *Ei/E0 =  9.9449293E-01
 Iteration:   2     *|du|/|u| =  2.8216023E-05     *Ei/E0 =  8.0144909E-06

 Equilibrium convergence summary for time step     100 at time =  1.0000000E+00
     Number of iterations to converge         =    2
     Number of stiffness reformations         =    0
     Number of right hand side evaluations    =    3
     Initial energy norm                      =  1.3750E-05
     Final energy norm                        =  1.1081E-10
     Final displacement norm                  =  5.0030E-15
     Required tolerance                       =  6.2840E-12
     402 t 1.0000E+00 dt 1.00E-02 write d3plot file

 *** termination time reached ***
     402 t 1.0000E+00 dt 1.00E-02 write d3dump01 file
 Memory required for implicit solution: maximum      520166

 T i m i n g   i n f o r m a t i o n
                        CPU(seconds)   %CPU  Clock(seconds) %Clock
  ----------------------------------------------------------------
  Initialization ....... 4.0000E-02    1.16     3.0270E-01    7.32
  Element processing ... 1.9800E+00   57.39     2.0145E+00   48.74
  Binary databases ..... 0.0000E+00    0.00     1.6121E-02    0.39
  ASCII database ....... 1.0000E-02    0.29     4.9520E-03    0.12
  Contact algorithm .... 0.0000E+00    0.00     3.8820E-03    0.09
  Contact entities ..... 0.0000E+00    0.00     0.0000E+00    0.00
  Rigid bodies ......... 0.0000E+00    0.00     1.3350E-03    0.03
  Implicit Nonlinear ... 2.1000E-01    6.09     4.1245E-01    9.98
  Implicit Lin. Alg. ... 1.2100E+00   35.07     1.3772E+00   33.32
  ----------------------------------------------------------------
  T o t a l s            3.4500E+00  100.00     4.1331E+00  100.00

 Problem time       =    1.0000E+00
 Problem cycle      =       402
 Total CPU time     =         3 seconds (   0 hours  0 minutes  3 seconds)
 CPU time per zone cycle  =     70104 nanoseconds
 Clock time per zone cycle=     78746 nanoseconds

 Number of CPU's    1
 NLQ used/max     136/  136
 Start time   05/28/2012 12:31:44  
 End time     05/28/2012 12:31:48  
 Elapsed time       4 seconds(  0 hours  0 min.  4 sec.) for     402 cycles

 N o r m a l    t e r m i n a t i o n
