 Stress recovery trial                                                   
                         ls-dyna ls971d.53450 R4.2.1  date 06/08/2009



 e l e m e n t   s t r e s s   c a l c u l a t i o n s   f o r   t i m e  s t e p        1   ( at time 0.00000E+00 )

 element  materl(lamina)
 ipt-shl  stress       sig-xx      sig-yy      sig-zz      sig-xy      sig-yz      sig-zx       plastic
           state                                                                                 strain 
      37-    100
   1- 16 elastic   0.0000E+00  0.0000E+00  0.0000E+00  0.0000E+00  0.0000E+00  0.0000E+00    1.5780E+11
   2- 16 elastic   0.0000E+00  0.0000E+00  0.0000E+00  0.0000E+00  0.0000E+00  0.0000E+00    1.5780E+11
   3- 16 elastic   0.0000E+00  0.0000E+00  0.0000E+00  0.0000E+00  0.0000E+00  0.0000E+00   -1.0000E+00
   4- 16 elastic   0.0000E+00  0.0000E+00  0.0000E+00  0.0000E+00  0.0000E+00  0.0000E+00   -1.0000E+00
   5- 16 elastic   0.0000E+00  0.0000E+00  0.0000E+00  0.0000E+00  0.0000E+00  0.0000E+00    1.5780E+11
   6- 16 elastic   0.0000E+00  0.0000E+00  0.0000E+00  0.0000E+00  0.0000E+00  0.0000E+00    1.5780E+11
   7- 16 elastic   0.0000E+00  0.0000E+00  0.0000E+00  0.0000E+00  0.0000E+00  0.0000E+00   -1.0000E+00
   8- 16 elastic   0.0000E+00  0.0000E+00  0.0000E+00  0.0000E+00  0.0000E+00  0.0000E+00   -1.0000E+00
   9- 16 elastic   0.0000E+00  0.0000E+00  0.0000E+00  0.0000E+00  0.0000E+00  0.0000E+00   -1.0000E+00
  10- 16 elastic   0.0000E+00  0.0000E+00  0.0000E+00  0.0000E+00  0.0000E+00  0.0000E+00   -1.0000E+00
  11- 16 elastic   0.0000E+00  0.0000E+00  0.0000E+00  0.0000E+00  0.0000E+00  0.0000E+00    1.5780E+11
  12- 16 elastic   0.0000E+00  0.0000E+00  0.0000E+00  0.0000E+00  0.0000E+00  0.0000E+00    1.5780E+11
  13- 16 elastic   0.0000E+00  0.0000E+00  0.0000E+00  0.0000E+00  0.0000E+00  0.0000E+00   -1.0000E+00
  14- 16 elastic   0.0000E+00  0.0000E+00  0.0000E+00  0.0000E+00  0.0000E+00  0.0000E+00   -1.0000E+00
  15- 16 elastic   0.0000E+00  0.0000E+00  0.0000E+00  0.0000E+00  0.0000E+00  0.0000E+00    1.5780E+11
  16- 16 elastic   0.0000E+00  0.0000E+00  0.0000E+00  0.0000E+00  0.0000E+00  0.0000E+00    1.5780E+11
      38-    100
   1- 16 elastic   0.0000E+00  0.0000E+00  0.0000E+00  0.0000E+00  0.0000E+00  0.0000E+00    1.5780E+11
   2- 16 elastic   0.0000E+00  0.0000E+00  0.0000E+00  0.0000E+00  0.0000E+00  0.0000E+00    1.5780E+11
   3- 16 elastic   0.0000E+00  0.0000E+00  0.0000E+00  0.0000E+00  0.0000E+00  0.0000E+00   -1.0000E+00
   4- 16 elastic   0.0000E+00  0.0000E+00  0.0000E+00  0.0000E+00  0.0000E+00  0.0000E+00   -1.0000E+00
   5- 16 elastic   0.0000E+00  0.0000E+00  0.0000E+00  0.0000E+00  0.0000E+00  0.0000E+00    1.5780E+11
   6- 16 elastic   0.0000E+00  0.0000E+00  0.0000E+00  0.0000E+00  0.0000E+00  0.0000E+00    1.5780E+11
   7- 16 elastic   0.0000E+00  0.0000E+00  0.0000E+00  0.0000E+00  0.0000E+00  0.0000E+00   -1.0000E+00
   8- 16 elastic   0.0000E+00  0.0000E+00  0.0000E+00  0.0000E+00  0.0000E+00  0.0000E+00   -1.0000E+00
   9- 16 elastic   0.0000E+00  0.0000E+00  0.0000E+00  0.0000E+00  0.0000E+00  0.0000E+00   -1.0000E+00
  10- 16 elastic   0.0000E+00  0.0000E+00  0.0000E+00  0.0000E+00  0.0000E+00  0.0000E+00   -1.0000E+00
  11- 16 elastic   0.0000E+00  0.0000E+00  0.0000E+00  0.0000E+00  0.0000E+00  0.0000E+00    1.5780E+11
  12- 16 elastic   0.0000E+00  0.0000E+00  0.0000E+00  0.0000E+00  0.0000E+00  0.0000E+00    1.5780E+11
  13- 16 elastic   0.0000E+00  0.0000E+00  0.0000E+00  0.0000E+00  0.0000E+00  0.0000E+00   -1.0000E+00
  14- 16 elastic   0.0000E+00  0.0000E+00  0.0000E+00  0.0000E+00  0.0000E+00  0.0000E+00   -1.0000E+00
  15- 16 elastic   0.0000E+00  0.0000E+00  0.0000E+00  0.0000E+00  0.0000E+00  0.0000E+00    1.5780E+11
  16- 16 elastic   0.0000E+00  0.0000E+00  0.0000E+00  0.0000E+00  0.0000E+00  0.0000E+00    1.5780E+11
      39-    100
   1- 16 elastic   0.0000E+00  0.0000E+00  0.0000E+00  0.0000E+00  0.0000E+00  0.0000E+00    1.5780E+11
   2- 16 elastic   0.0000E+00  0.0000E+00  0.0000E+00  0.0000E+00  0.0000E+00  0.0000E+00    1.5780E+11
   3- 16 elastic   0.0000E+00  0.0000E+00  0.0000E+00  0.0000E+00  0.0000E+00  0.0000E+00   -1.0000E+00
   4- 16 elastic   0.0000E+00  0.0000E+00  0.0000E+00  0.0000E+00  0.0000E+00  0.0000E+00   -1.0000E+00
   5- 16 elastic   0.0000E+00  0.0000E+00  0.0000E+00  0.0000E+00  0.0000E+00  0.0000E+00    1.5780E+11
   6- 16 elastic   0.0000E+00  0.0000E+00  0.0000E+00  0.0000E+00  0.0000E+00  0.0000E+00    1.5780E+11
   7- 16 elastic   0.0000E+00  0.0000E+00  0.0000E+00  0.0000E+00  0.0000E+00  0.0000E+00   -1.0000E+00
   8- 16 elastic   0.0000E+00  0.0000E+00  0.0000E+00  0.0000E+00  0.0000E+00  0.0000E+00   -1.0000E+00
   9- 16 elastic   0.0000E+00  0.0000E+00  0.0000E+00  0.0000E+00  0.0000E+00  0.0000E+00   -1.0000E+00
  10- 16 elastic   0.0000E+00  0.0000E+00  0.0000E+00  0.0000E+00  0.0000E+00  0.0000E+00   -1.0000E+00
  11- 16 elastic   0.0000E+00  0.0000E+00  0.0000E+00  0.0000E+00  0.0000E+00  0.0000E+00    1.5780E+11
  12- 16 elastic   0.0000E+00  0.0000E+00  0.0000E+00  0.0000E+00  0.0000E+00  0.0000E+00    1.5780E+11
  13- 16 elastic   0.0000E+00  0.0000E+00  0.0000E+00  0.0000E+00  0.0000E+00  0.0000E+00   -1.0000E+00
  14- 16 elastic   0.0000E+00  0.0000E+00  0.0000E+00  0.0000E+00  0.0000E+00  0.0000E+00   -1.0000E+00
  15- 16 elastic   0.0000E+00  0.0000E+00  0.0000E+00  0.0000E+00  0.0000E+00  0.0000E+00    1.5780E+11
  16- 16 elastic   0.0000E+00  0.0000E+00  0.0000E+00  0.0000E+00  0.0000E+00  0.0000E+00    1.5780E+11
      40-    100
   1- 16 elastic   0.0000E+00  0.0000E+00  0.0000E+00  0.0000E+00  0.0000E+00  0.0000E+00    1.5780E+11
   2- 16 elastic   0.0000E+00  0.0000E+00  0.0000E+00  0.0000E+00  0.0000E+00  0.0000E+00    1.5780E+11
   3- 16 elastic   0.0000E+00  0.0000E+00  0.0000E+00  0.0000E+00  0.0000E+00  0.0000E+00   -1.0000E+00
   4- 16 elastic   0.0000E+00  0.0000E+00  0.0000E+00  0.0000E+00  0.0000E+00  0.0000E+00   -1.0000E+00
   5- 16 elastic   0.0000E+00  0.0000E+00  0.0000E+00  0.0000E+00  0.0000E+00  0.0000E+00    1.5780E+11
   6- 16 elastic   0.0000E+00  0.0000E+00  0.0000E+00  0.0000E+00  0.0000E+00  0.0000E+00    1.5780E+11
   7- 16 elastic   0.0000E+00  0.0000E+00  0.0000E+00  0.0000E+00  0.0000E+00  0.0000E+00   -1.0000E+00
   8- 16 elastic   0.0000E+00  0.0000E+00  0.0000E+00  0.0000E+00  0.0000E+00  0.0000E+00   -1.0000E+00
   9- 16 elastic   0.0000E+00  0.0000E+00  0.0000E+00  0.0000E+00  0.0000E+00  0.0000E+00   -1.0000E+00
  10- 16 elastic   0.0000E+00  0.0000E+00  0.0000E+00  0.0000E+00  0.0000E+00  0.0000E+00   -1.0000E+00
  11- 16 elastic   0.0000E+00  0.0000E+00  0.0000E+00  0.0000E+00  0.0000E+00  0.0000E+00    1.5780E+11
  12- 16 elastic   0.0000E+00  0.0000E+00  0.0000E+00  0.0000E+00  0.0000E+00  0.0000E+00    1.5780E+11
  13- 16 elastic   0.0000E+00  0.0000E+00  0.0000E+00  0.0000E+00  0.0000E+00  0.0000E+00   -1.0000E+00
  14- 16 elastic   0.0000E+00  0.0000E+00  0.0000E+00  0.0000E+00  0.0000E+00  0.0000E+00   -1.0000E+00
  15- 16 elastic   0.0000E+00  0.0000E+00  0.0000E+00  0.0000E+00  0.0000E+00  0.0000E+00    1.5780E+11
  16- 16 elastic   0.0000E+00  0.0000E+00  0.0000E+00  0.0000E+00  0.0000E+00  0.0000E+00    1.5780E+11
      41-    100
   1- 16 elastic   0.0000E+00  0.0000E+00  0.0000E+00  0.0000E+00  0.0000E+00  0.0000E+00    1.5780E+11
   2- 16 elastic   0.0000E+00  0.0000E+00  0.0000E+00  0.0000E+00  0.0000E+00  0.0000E+00    1.5780E+11
   3- 16 elastic   0.0000E+00  0.0000E+00  0.0000E+00  0.0000E+00  0.0000E+00  0.0000E+00   -1.0000E+00
   4- 16 elastic   0.0000E+00  0.0000E+00  0.0000E+00  0.0000E+00  0.0000E+00  0.0000E+00   -1.0000E+00
   5- 16 elastic   0.0000E+00  0.0000E+00  0.0000E+00  0.0000E+00  0.0000E+00  0.0000E+00    1.5780E+11
   6- 16 elastic   0.0000E+00  0.0000E+00  0.0000E+00  0.0000E+00  0.0000E+00  0.0000E+00    1.5780E+11
   7- 16 elastic   0.0000E+00  0.0000E+00  0.0000E+00  0.0000E+00  0.0000E+00  0.0000E+00   -1.0000E+00
   8- 16 elastic   0.0000E+00  0.0000E+00  0.0000E+00  0.0000E+00  0.0000E+00  0.0000E+00   -1.0000E+00
   9- 16 elastic   0.0000E+00  0.0000E+00  0.0000E+00  0.0000E+00  0.0000E+00  0.0000E+00   -1.0000E+00
  10- 16 elastic   0.0000E+00  0.0000E+00  0.0000E+00  0.0000E+00  0.0000E+00  0.0000E+00   -1.0000E+00
  11- 16 elastic   0.0000E+00  0.0000E+00  0.0000E+00  0.0000E+00  0.0000E+00  0.0000E+00    1.5780E+11
  12- 16 elastic   0.0000E+00  0.0000E+00  0.0000E+00  0.0000E+00  0.0000E+00  0.0000E+00    1.5780E+11
  13- 16 elastic   0.0000E+00  0.0000E+00  0.0000E+00  0.0000E+00  0.0000E+00  0.0000E+00   -1.0000E+00
  14- 16 elastic   0.0000E+00  0.0000E+00  0.0000E+00  0.0000E+00  0.0000E+00  0.0000E+00   -1.0000E+00
  15- 16 elastic   0.0000E+00  0.0000E+00  0.0000E+00  0.0000E+00  0.0000E+00  0.0000E+00    1.5780E+11
  16- 16 elastic   0.0000E+00  0.0000E+00  0.0000E+00  0.0000E+00  0.0000E+00  0.0000E+00    1.5780E+11
      48-    100
   1- 16 elastic   0.0000E+00  0.0000E+00  0.0000E+00  0.0000E+00  0.0000E+00  0.0000E+00    1.5780E+11
   2- 16 elastic   0.0000E+00  0.0000E+00  0.0000E+00  0.0000E+00  0.0000E+00  0.0000E+00    1.5780E+11
   3- 16 elastic   0.0000E+00  0.0000E+00  0.0000E+00  0.0000E+00  0.0000E+00  0.0000E+00   -1.0000E+00
   4- 16 elastic   0.0000E+00  0.0000E+00  0.0000E+00  0.0000E+00  0.0000E+00  0.0000E+00   -1.0000E+00
   5- 16 elastic   0.0000E+00  0.0000E+00  0.0000E+00  0.0000E+00  0.0000E+00  0.0000E+00    1.5780E+11
   6- 16 elastic   0.0000E+00  0.0000E+00  0.0000E+00  0.0000E+00  0.0000E+00  0.0000E+00    1.5780E+11
   7- 16 elastic   0.0000E+00  0.0000E+00  0.0000E+00  0.0000E+00  0.0000E+00  0.0000E+00   -1.0000E+00
   8- 16 elastic   0.0000E+00  0.0000E+00  0.0000E+00  0.0000E+00  0.0000E+00  0.0000E+00   -1.0000E+00
   9- 16 elastic   0.0000E+00  0.0000E+00  0.0000E+00  0.0000E+00  0.0000E+00  0.0000E+00   -1.0000E+00
  10- 16 elastic   0.0000E+00  0.0000E+00  0.0000E+00  0.0000E+00  0.0000E+00  0.0000E+00   -1.0000E+00
  11- 16 elastic   0.0000E+00  0.0000E+00  0.0000E+00  0.0000E+00  0.0000E+00  0.0000E+00    1.5780E+11
  12- 16 elastic   0.0000E+00  0.0000E+00  0.0000E+00  0.0000E+00  0.0000E+00  0.0000E+00    1.5780E+11
  13- 16 elastic   0.0000E+00  0.0000E+00  0.0000E+00  0.0000E+00  0.0000E+00  0.0000E+00   -1.0000E+00
  14- 16 elastic   0.0000E+00  0.0000E+00  0.0000E+00  0.0000E+00  0.0000E+00  0.0000E+00   -1.0000E+00
  15- 16 elastic   0.0000E+00  0.0000E+00  0.0000E+00  0.0000E+00  0.0000E+00  0.0000E+00    1.5780E+11
  16- 16 elastic   0.0000E+00  0.0000E+00  0.0000E+00  0.0000E+00  0.0000E+00  0.0000E+00    1.5780E+11
      49-    100
   1- 16 elastic   0.0000E+00  0.0000E+00  0.0000E+00  0.0000E+00  0.0000E+00  0.0000E+00    1.5780E+11
   2- 16 elastic   0.0000E+00  0.0000E+00  0.0000E+00  0.0000E+00  0.0000E+00  0.0000E+00    1.5780E+11
   3- 16 elastic   0.0000E+00  0.0000E+00  0.0000E+00  0.0000E+00  0.0000E+00  0.0000E+00   -1.0000E+00
   4- 16 elastic   0.0000E+00  0.0000E+00  0.0000E+00  0.0000E+00  0.0000E+00  0.0000E+00   -1.0000E+00
   5- 16 elastic   0.0000E+00  0.0000E+00  0.0000E+00  0.0000E+00  0.0000E+00  0.0000E+00    1.5780E+11
   6- 16 elastic   0.0000E+00  0.0000E+00  0.0000E+00  0.0000E+00  0.0000E+00  0.0000E+00    1.5780E+11
   7- 16 elastic   0.0000E+00  0.0000E+00  0.0000E+00  0.0000E+00  0.0000E+00  0.0000E+00   -1.0000E+00
   8- 16 elastic   0.0000E+00  0.0000E+00  0.0000E+00  0.0000E+00  0.0000E+00  0.0000E+00   -1.0000E+00
   9- 16 elastic   0.0000E+00  0.0000E+00  0.0000E+00  0.0000E+00  0.0000E+00  0.0000E+00   -1.0000E+00
  10- 16 elastic   0.0000E+00  0.0000E+00  0.0000E+00  0.0000E+00  0.0000E+00  0.0000E+00   -1.0000E+00
  11- 16 elastic   0.0000E+00  0.0000E+00  0.0000E+00  0.0000E+00  0.0000E+00  0.0000E+00    1.5780E+11
  12- 16 elastic   0.0000E+00  0.0000E+00  0.0000E+00  0.0000E+00  0.0000E+00  0.0000E+00    1.5780E+11
  13- 16 elastic   0.0000E+00  0.0000E+00  0.0000E+00  0.0000E+00  0.0000E+00  0.0000E+00   -1.0000E+00
  14- 16 elastic   0.0000E+00  0.0000E+00  0.0000E+00  0.0000E+00  0.0000E+00  0.0000E+00   -1.0000E+00
  15- 16 elastic   0.0000E+00  0.0000E+00  0.0000E+00  0.0000E+00  0.0000E+00  0.0000E+00    1.5780E+11
  16- 16 elastic   0.0000E+00  0.0000E+00  0.0000E+00  0.0000E+00  0.0000E+00  0.0000E+00    1.5780E+11
      50-    100
   1- 16 elastic   0.0000E+00  0.0000E+00  0.0000E+00  0.0000E+00  0.0000E+00  0.0000E+00    1.5780E+11
   2- 16 elastic   0.0000E+00  0.0000E+00  0.0000E+00  0.0000E+00  0.0000E+00  0.0000E+00    1.5780E+11
   3- 16 elastic   0.0000E+00  0.0000E+00  0.0000E+00  0.0000E+00  0.0000E+00  0.0000E+00   -1.0000E+00
   4- 16 elastic   0.0000E+00  0.0000E+00  0.0000E+00  0.0000E+00  0.0000E+00  0.0000E+00   -1.0000E+00
   5- 16 elastic   0.0000E+00  0.0000E+00  0.0000E+00  0.0000E+00  0.0000E+00  0.0000E+00    1.5780E+11
   6- 16 elastic   0.0000E+00  0.0000E+00  0.0000E+00  0.0000E+00  0.0000E+00  0.0000E+00    1.5780E+11
   7- 16 elastic   0.0000E+00  0.0000E+00  0.0000E+00  0.0000E+00  0.0000E+00  0.0000E+00   -1.0000E+00
   8- 16 elastic   0.0000E+00  0.0000E+00  0.0000E+00  0.0000E+00  0.0000E+00  0.0000E+00   -1.0000E+00
   9- 16 elastic   0.0000E+00  0.0000E+00  0.0000E+00  0.0000E+00  0.0000E+00  0.0000E+00   -1.0000E+00
  10- 16 elastic   0.0000E+00  0.0000E+00  0.0000E+00  0.0000E+00  0.0000E+00  0.0000E+00   -1.0000E+00
  11- 16 elastic   0.0000E+00  0.0000E+00  0.0000E+00  0.0000E+00  0.0000E+00  0.0000E+00    1.5780E+11
  12- 16 elastic   0.0000E+00  0.0000E+00  0.0000E+00  0.0000E+00  0.0000E+00  0.0000E+00    1.5780E+11
  13- 16 elastic   0.0000E+00  0.0000E+00  0.0000E+00  0.0000E+00  0.0000E+00  0.0000E+00   -1.0000E+00
  14- 16 elastic   0.0000E+00  0.0000E+00  0.0000E+00  0.0000E+00  0.0000E+00  0.0000E+00   -1.0000E+00
  15- 16 elastic   0.0000E+00  0.0000E+00  0.0000E+00  0.0000E+00  0.0000E+00  0.0000E+00    1.5780E+11
  16- 16 elastic   0.0000E+00  0.0000E+00  0.0000E+00  0.0000E+00  0.0000E+00  0.0000E+00    1.5780E+11
      51-    100
   1- 16 elastic   0.0000E+00  0.0000E+00  0.0000E+00  0.0000E+00  0.0000E+00  0.0000E+00    1.5780E+11
   2- 16 elastic   0.0000E+00  0.0000E+00  0.0000E+00  0.0000E+00  0.0000E+00  0.0000E+00    1.5780E+11
   3- 16 elastic   0.0000E+00  0.0000E+00  0.0000E+00  0.0000E+00  0.0000E+00  0.0000E+00   -1.0000E+00
   4- 16 elastic   0.0000E+00  0.0000E+00  0.0000E+00  0.0000E+00  0.0000E+00  0.0000E+00   -1.0000E+00
   5- 16 elastic   0.0000E+00  0.0000E+00  0.0000E+00  0.0000E+00  0.0000E+00  0.0000E+00    1.5780E+11
   6- 16 elastic   0.0000E+00  0.0000E+00  0.0000E+00  0.0000E+00  0.0000E+00  0.0000E+00    1.5780E+11
   7- 16 elastic   0.0000E+00  0.0000E+00  0.0000E+00  0.0000E+00  0.0000E+00  0.0000E+00   -1.0000E+00
   8- 16 elastic   0.0000E+00  0.0000E+00  0.0000E+00  0.0000E+00  0.0000E+00  0.0000E+00   -1.0000E+00
   9- 16 elastic   0.0000E+00  0.0000E+00  0.0000E+00  0.0000E+00  0.0000E+00  0.0000E+00   -1.0000E+00
  10- 16 elastic   0.0000E+00  0.0000E+00  0.0000E+00  0.0000E+00  0.0000E+00  0.0000E+00   -1.0000E+00
  11- 16 elastic   0.0000E+00  0.0000E+00  0.0000E+00  0.0000E+00  0.0000E+00  0.0000E+00    1.5780E+11
  12- 16 elastic   0.0000E+00  0.0000E+00  0.0000E+00  0.0000E+00  0.0000E+00  0.0000E+00    1.5780E+11
  13- 16 elastic   0.0000E+00  0.0000E+00  0.0000E+00  0.0000E+00  0.0000E+00  0.0000E+00   -1.0000E+00
  14- 16 elastic   0.0000E+00  0.0000E+00  0.0000E+00  0.0000E+00  0.0000E+00  0.0000E+00   -1.0000E+00
  15- 16 elastic   0.0000E+00  0.0000E+00  0.0000E+00  0.0000E+00  0.0000E+00  0.0000E+00    1.5780E+11
  16- 16 elastic   0.0000E+00  0.0000E+00  0.0000E+00  0.0000E+00  0.0000E+00  0.0000E+00    1.5780E+11
      52-    100
   1- 16 elastic   0.0000E+00  0.0000E+00  0.0000E+00  0.0000E+00  0.0000E+00  0.0000E+00    1.5780E+11
   2- 16 elastic   0.0000E+00  0.0000E+00  0.0000E+00  0.0000E+00  0.0000E+00  0.0000E+00    1.5780E+11
   3- 16 elastic   0.0000E+00  0.0000E+00  0.0000E+00  0.0000E+00  0.0000E+00  0.0000E+00   -1.0000E+00
   4- 16 elastic   0.0000E+00  0.0000E+00  0.0000E+00  0.0000E+00  0.0000E+00  0.0000E+00   -1.0000E+00
   5- 16 elastic   0.0000E+00  0.0000E+00  0.0000E+00  0.0000E+00  0.0000E+00  0.0000E+00    1.5780E+11
   6- 16 elastic   0.0000E+00  0.0000E+00  0.0000E+00  0.0000E+00  0.0000E+00  0.0000E+00    1.5780E+11
   7- 16 elastic   0.0000E+00  0.0000E+00  0.0000E+00  0.0000E+00  0.0000E+00  0.0000E+00   -1.0000E+00
   8- 16 elastic   0.0000E+00  0.0000E+00  0.0000E+00  0.0000E+00  0.0000E+00  0.0000E+00   -1.0000E+00
   9- 16 elastic   0.0000E+00  0.0000E+00  0.0000E+00  0.0000E+00  0.0000E+00  0.0000E+00   -1.0000E+00
  10- 16 elastic   0.0000E+00  0.0000E+00  0.0000E+00  0.0000E+00  0.0000E+00  0.0000E+00   -1.0000E+00
  11- 16 elastic   0.0000E+00  0.0000E+00  0.0000E+00  0.0000E+00  0.0000E+00  0.0000E+00    1.5780E+11
  12- 16 elastic   0.0000E+00  0.0000E+00  0.0000E+00  0.0000E+00  0.0000E+00  0.0000E+00    1.5780E+11
  13- 16 elastic   0.0000E+00  0.0000E+00  0.0000E+00  0.0000E+00  0.0000E+00  0.0000E+00   -1.0000E+00
  14- 16 elastic   0.0000E+00  0.0000E+00  0.0000E+00  0.0000E+00  0.0000E+00  0.0000E+00   -1.0000E+00
  15- 16 elastic   0.0000E+00  0.0000E+00  0.0000E+00  0.0000E+00  0.0000E+00  0.0000E+00    1.5780E+11
  16- 16 elastic   0.0000E+00  0.0000E+00  0.0000E+00  0.0000E+00  0.0000E+00  0.0000E+00    1.5780E+11
      59-    100
   1- 16 elastic   0.0000E+00  0.0000E+00  0.0000E+00  0.0000E+00  0.0000E+00  0.0000E+00    1.5780E+11
   2- 16 elastic   0.0000E+00  0.0000E+00  0.0000E+00  0.0000E+00  0.0000E+00  0.0000E+00    1.5780E+11
   3- 16 elastic   0.0000E+00  0.0000E+00  0.0000E+00  0.0000E+00  0.0000E+00  0.0000E+00   -1.0000E+00
   4- 16 elastic   0.0000E+00  0.0000E+00  0.0000E+00  0.0000E+00  0.0000E+00  0.0000E+00   -1.0000E+00
   5- 16 elastic   0.0000E+00  0.0000E+00  0.0000E+00  0.0000E+00  0.0000E+00  0.0000E+00    1.5780E+11
   6- 16 elastic   0.0000E+00  0.0000E+00  0.0000E+00  0.0000E+00  0.0000E+00  0.0000E+00    1.5780E+11
   7- 16 elastic   0.0000E+00  0.0000E+00  0.0000E+00  0.0000E+00  0.0000E+00  0.0000E+00   -1.0000E+00
   8- 16 elastic   0.0000E+00  0.0000E+00  0.0000E+00  0.0000E+00  0.0000E+00  0.0000E+00   -1.0000E+00
   9- 16 elastic   0.0000E+00  0.0000E+00  0.0000E+00  0.0000E+00  0.0000E+00  0.0000E+00   -1.0000E+00
  10- 16 elastic   0.0000E+00  0.0000E+00  0.0000E+00  0.0000E+00  0.0000E+00  0.0000E+00   -1.0000E+00
  11- 16 elastic   0.0000E+00  0.0000E+00  0.0000E+00  0.0000E+00  0.0000E+00  0.0000E+00    1.5780E+11
  12- 16 elastic   0.0000E+00  0.0000E+00  0.0000E+00  0.0000E+00  0.0000E+00  0.0000E+00    1.5780E+11
  13- 16 elastic   0.0000E+00  0.0000E+00  0.0000E+00  0.0000E+00  0.0000E+00  0.0000E+00   -1.0000E+00
  14- 16 elastic   0.0000E+00  0.0000E+00  0.0000E+00  0.0000E+00  0.0000E+00  0.0000E+00   -1.0000E+00
  15- 16 elastic   0.0000E+00  0.0000E+00  0.0000E+00  0.0000E+00  0.0000E+00  0.0000E+00    1.5780E+11
  16- 16 elastic   0.0000E+00  0.0000E+00  0.0000E+00  0.0000E+00  0.0000E+00  0.0000E+00    1.5780E+11
      60-    100
   1- 16 elastic   0.0000E+00  0.0000E+00  0.0000E+00  0.0000E+00  0.0000E+00  0.0000E+00    1.5780E+11
   2- 16 elastic   0.0000E+00  0.0000E+00  0.0000E+00  0.0000E+00  0.0000E+00  0.0000E+00    1.5780E+11
   3- 16 elastic   0.0000E+00  0.0000E+00  0.0000E+00  0.0000E+00  0.0000E+00  0.0000E+00   -1.0000E+00
   4- 16 elastic   0.0000E+00  0.0000E+00  0.0000E+00  0.0000E+00  0.0000E+00  0.0000E+00   -1.0000E+00
   5- 16 elastic   0.0000E+00  0.0000E+00  0.0000E+00  0.0000E+00  0.0000E+00  0.0000E+00    1.5780E+11
   6- 16 elastic   0.0000E+00  0.0000E+00  0.0000E+00  0.0000E+00  0.0000E+00  0.0000E+00    1.5780E+11
   7- 16 elastic   0.0000E+00  0.0000E+00  0.0000E+00  0.0000E+00  0.0000E+00  0.0000E+00   -1.0000E+00
   8- 16 elastic   0.0000E+00  0.0000E+00  0.0000E+00  0.0000E+00  0.0000E+00  0.0000E+00   -1.0000E+00
   9- 16 elastic   0.0000E+00  0.0000E+00  0.0000E+00  0.0000E+00  0.0000E+00  0.0000E+00   -1.0000E+00
  10- 16 elastic   0.0000E+00  0.0000E+00  0.0000E+00  0.0000E+00  0.0000E+00  0.0000E+00   -1.0000E+00
  11- 16 elastic   0.0000E+00  0.0000E+00  0.0000E+00  0.0000E+00  0.0000E+00  0.0000E+00    1.5780E+11
  12- 16 elastic   0.0000E+00  0.0000E+00  0.0000E+00  0.0000E+00  0.0000E+00  0.0000E+00    1.5780E+11
  13- 16 elastic   0.0000E+00  0.0000E+00  0.0000E+00  0.0000E+00  0.0000E+00  0.0000E+00   -1.0000E+00
  14- 16 elastic   0.0000E+00  0.0000E+00  0.0000E+00  0.0000E+00  0.0000E+00  0.0000E+00   -1.0000E+00
  15- 16 elastic   0.0000E+00  0.0000E+00  0.0000E+00  0.0000E+00  0.0000E+00  0.0000E+00    1.5780E+11
  16- 16 elastic   0.0000E+00  0.0000E+00  0.0000E+00  0.0000E+00  0.0000E+00  0.0000E+00    1.5780E+11
      61-    100
   1- 16 elastic   0.0000E+00  0.0000E+00  0.0000E+00  0.0000E+00  0.0000E+00  0.0000E+00    1.5780E+11
   2- 16 elastic   0.0000E+00  0.0000E+00  0.0000E+00  0.0000E+00  0.0000E+00  0.0000E+00    1.5780E+11
   3- 16 elastic   0.0000E+00  0.0000E+00  0.0000E+00  0.0000E+00  0.0000E+00  0.0000E+00   -1.0000E+00
   4- 16 elastic   0.0000E+00  0.0000E+00  0.0000E+00  0.0000E+00  0.0000E+00  0.0000E+00   -1.0000E+00
   5- 16 elastic   0.0000E+00  0.0000E+00  0.0000E+00  0.0000E+00  0.0000E+00  0.0000E+00    1.5780E+11
   6- 16 elastic   0.0000E+00  0.0000E+00  0.0000E+00  0.0000E+00  0.0000E+00  0.0000E+00    1.5780E+11
   7- 16 elastic   0.0000E+00  0.0000E+00  0.0000E+00  0.0000E+00  0.0000E+00  0.0000E+00   -1.0000E+00
   8- 16 elastic   0.0000E+00  0.0000E+00  0.0000E+00  0.0000E+00  0.0000E+00  0.0000E+00   -1.0000E+00
   9- 16 elastic   0.0000E+00  0.0000E+00  0.0000E+00  0.0000E+00  0.0000E+00  0.0000E+00   -1.0000E+00
  10- 16 elastic   0.0000E+00  0.0000E+00  0.0000E+00  0.0000E+00  0.0000E+00  0.0000E+00   -1.0000E+00
  11- 16 elastic   0.0000E+00  0.0000E+00  0.0000E+00  0.0000E+00  0.0000E+00  0.0000E+00    1.5780E+11
  12- 16 elastic   0.0000E+00  0.0000E+00  0.0000E+00  0.0000E+00  0.0000E+00  0.0000E+00    1.5780E+11
  13- 16 elastic   0.0000E+00  0.0000E+00  0.0000E+00  0.0000E+00  0.0000E+00  0.0000E+00   -1.0000E+00
  14- 16 elastic   0.0000E+00  0.0000E+00  0.0000E+00  0.0000E+00  0.0000E+00  0.0000E+00   -1.0000E+00
  15- 16 elastic   0.0000E+00  0.0000E+00  0.0000E+00  0.0000E+00  0.0000E+00  0.0000E+00    1.5780E+11
  16- 16 elastic   0.0000E+00  0.0000E+00  0.0000E+00  0.0000E+00  0.0000E+00  0.0000E+00    1.5780E+11
      62-    100
   1- 16 elastic   0.0000E+00  0.0000E+00  0.0000E+00  0.0000E+00  0.0000E+00  0.0000E+00    1.5780E+11
   2- 16 elastic   0.0000E+00  0.0000E+00  0.0000E+00  0.0000E+00  0.0000E+00  0.0000E+00    1.5780E+11
   3- 16 elastic   0.0000E+00  0.0000E+00  0.0000E+00  0.0000E+00  0.0000E+00  0.0000E+00   -1.0000E+00
   4- 16 elastic   0.0000E+00  0.0000E+00  0.0000E+00  0.0000E+00  0.0000E+00  0.0000E+00   -1.0000E+00
   5- 16 elastic   0.0000E+00  0.0000E+00  0.0000E+00  0.0000E+00  0.0000E+00  0.0000E+00    1.5780E+11
   6- 16 elastic   0.0000E+00  0.0000E+00  0.0000E+00  0.0000E+00  0.0000E+00  0.0000E+00    1.5780E+11
   7- 16 elastic   0.0000E+00  0.0000E+00  0.0000E+00  0.0000E+00  0.0000E+00  0.0000E+00   -1.0000E+00
   8- 16 elastic   0.0000E+00  0.0000E+00  0.0000E+00  0.0000E+00  0.0000E+00  0.0000E+00   -1.0000E+00
   9- 16 elastic   0.0000E+00  0.0000E+00  0.0000E+00  0.0000E+00  0.0000E+00  0.0000E+00   -1.0000E+00
  10- 16 elastic   0.0000E+00  0.0000E+00  0.0000E+00  0.0000E+00  0.0000E+00  0.0000E+00   -1.0000E+00
  11- 16 elastic   0.0000E+00  0.0000E+00  0.0000E+00  0.0000E+00  0.0000E+00  0.0000E+00    1.5780E+11
  12- 16 elastic   0.0000E+00  0.0000E+00  0.0000E+00  0.0000E+00  0.0000E+00  0.0000E+00    1.5780E+11
  13- 16 elastic   0.0000E+00  0.0000E+00  0.0000E+00  0.0000E+00  0.0000E+00  0.0000E+00   -1.0000E+00
  14- 16 elastic   0.0000E+00  0.0000E+00  0.0000E+00  0.0000E+00  0.0000E+00  0.0000E+00   -1.0000E+00
  15- 16 elastic   0.0000E+00  0.0000E+00  0.0000E+00  0.0000E+00  0.0000E+00  0.0000E+00    1.5780E+11
  16- 16 elastic   0.0000E+00  0.0000E+00  0.0000E+00  0.0000E+00  0.0000E+00  0.0000E+00    1.5780E+11
      63-    100
   1- 16 elastic   0.0000E+00  0.0000E+00  0.0000E+00  0.0000E+00  0.0000E+00  0.0000E+00    1.5780E+11
   2- 16 elastic   0.0000E+00  0.0000E+00  0.0000E+00  0.0000E+00  0.0000E+00  0.0000E+00    1.5780E+11
   3- 16 elastic   0.0000E+00  0.0000E+00  0.0000E+00  0.0000E+00  0.0000E+00  0.0000E+00   -1.0000E+00
   4- 16 elastic   0.0000E+00  0.0000E+00  0.0000E+00  0.0000E+00  0.0000E+00  0.0000E+00   -1.0000E+00
   5- 16 elastic   0.0000E+00  0.0000E+00  0.0000E+00  0.0000E+00  0.0000E+00  0.0000E+00    1.5780E+11
   6- 16 elastic   0.0000E+00  0.0000E+00  0.0000E+00  0.0000E+00  0.0000E+00  0.0000E+00    1.5780E+11
   7- 16 elastic   0.0000E+00  0.0000E+00  0.0000E+00  0.0000E+00  0.0000E+00  0.0000E+00   -1.0000E+00
   8- 16 elastic   0.0000E+00  0.0000E+00  0.0000E+00  0.0000E+00  0.0000E+00  0.0000E+00   -1.0000E+00
   9- 16 elastic   0.0000E+00  0.0000E+00  0.0000E+00  0.0000E+00  0.0000E+00  0.0000E+00   -1.0000E+00
  10- 16 elastic   0.0000E+00  0.0000E+00  0.0000E+00  0.0000E+00  0.0000E+00  0.0000E+00   -1.0000E+00
  11- 16 elastic   0.0000E+00  0.0000E+00  0.0000E+00  0.0000E+00  0.0000E+00  0.0000E+00    1.5780E+11
  12- 16 elastic   0.0000E+00  0.0000E+00  0.0000E+00  0.0000E+00  0.0000E+00  0.0000E+00    1.5780E+11
  13- 16 elastic   0.0000E+00  0.0000E+00  0.0000E+00  0.0000E+00  0.0000E+00  0.0000E+00   -1.0000E+00
  14- 16 elastic   0.0000E+00  0.0000E+00  0.0000E+00  0.0000E+00  0.0000E+00  0.0000E+00   -1.0000E+00
  15- 16 elastic   0.0000E+00  0.0000E+00  0.0000E+00  0.0000E+00  0.0000E+00  0.0000E+00    1.5780E+11
  16- 16 elastic   0.0000E+00  0.0000E+00  0.0000E+00  0.0000E+00  0.0000E+00  0.0000E+00    1.5780E+11
      70-    100
   1- 16 elastic   0.0000E+00  0.0000E+00  0.0000E+00  0.0000E+00  0.0000E+00  0.0000E+00    1.5780E+11
   2- 16 elastic   0.0000E+00  0.0000E+00  0.0000E+00  0.0000E+00  0.0000E+00  0.0000E+00    1.5780E+11
   3- 16 elastic   0.0000E+00  0.0000E+00  0.0000E+00  0.0000E+00  0.0000E+00  0.0000E+00   -1.0000E+00
   4- 16 elastic   0.0000E+00  0.0000E+00  0.0000E+00  0.0000E+00  0.0000E+00  0.0000E+00   -1.0000E+00
   5- 16 elastic   0.0000E+00  0.0000E+00  0.0000E+00  0.0000E+00  0.0000E+00  0.0000E+00    1.5780E+11
   6- 16 elastic   0.0000E+00  0.0000E+00  0.0000E+00  0.0000E+00  0.0000E+00  0.0000E+00    1.5780E+11
   7- 16 elastic   0.0000E+00  0.0000E+00  0.0000E+00  0.0000E+00  0.0000E+00  0.0000E+00   -1.0000E+00
   8- 16 elastic   0.0000E+00  0.0000E+00  0.0000E+00  0.0000E+00  0.0000E+00  0.0000E+00   -1.0000E+00
   9- 16 elastic   0.0000E+00  0.0000E+00  0.0000E+00  0.0000E+00  0.0000E+00  0.0000E+00   -1.0000E+00
  10- 16 elastic   0.0000E+00  0.0000E+00  0.0000E+00  0.0000E+00  0.0000E+00  0.0000E+00   -1.0000E+00
  11- 16 elastic   0.0000E+00  0.0000E+00  0.0000E+00  0.0000E+00  0.0000E+00  0.0000E+00    1.5780E+11
  12- 16 elastic   0.0000E+00  0.0000E+00  0.0000E+00  0.0000E+00  0.0000E+00  0.0000E+00    1.5780E+11
  13- 16 elastic   0.0000E+00  0.0000E+00  0.0000E+00  0.0000E+00  0.0000E+00  0.0000E+00   -1.0000E+00
  14- 16 elastic   0.0000E+00  0.0000E+00  0.0000E+00  0.0000E+00  0.0000E+00  0.0000E+00   -1.0000E+00
  15- 16 elastic   0.0000E+00  0.0000E+00  0.0000E+00  0.0000E+00  0.0000E+00  0.0000E+00    1.5780E+11
  16- 16 elastic   0.0000E+00  0.0000E+00  0.0000E+00  0.0000E+00  0.0000E+00  0.0000E+00    1.5780E+11
      71-    100
   1- 16 elastic   0.0000E+00  0.0000E+00  0.0000E+00  0.0000E+00  0.0000E+00  0.0000E+00    1.5780E+11
   2- 16 elastic   0.0000E+00  0.0000E+00  0.0000E+00  0.0000E+00  0.0000E+00  0.0000E+00    1.5780E+11
   3- 16 elastic   0.0000E+00  0.0000E+00  0.0000E+00  0.0000E+00  0.0000E+00  0.0000E+00   -1.0000E+00
   4- 16 elastic   0.0000E+00  0.0000E+00  0.0000E+00  0.0000E+00  0.0000E+00  0.0000E+00   -1.0000E+00
   5- 16 elastic   0.0000E+00  0.0000E+00  0.0000E+00  0.0000E+00  0.0000E+00  0.0000E+00    1.5780E+11
   6- 16 elastic   0.0000E+00  0.0000E+00  0.0000E+00  0.0000E+00  0.0000E+00  0.0000E+00    1.5780E+11
   7- 16 elastic   0.0000E+00  0.0000E+00  0.0000E+00  0.0000E+00  0.0000E+00  0.0000E+00   -1.0000E+00
   8- 16 elastic   0.0000E+00  0.0000E+00  0.0000E+00  0.0000E+00  0.0000E+00  0.0000E+00   -1.0000E+00
   9- 16 elastic   0.0000E+00  0.0000E+00  0.0000E+00  0.0000E+00  0.0000E+00  0.0000E+00   -1.0000E+00
  10- 16 elastic   0.0000E+00  0.0000E+00  0.0000E+00  0.0000E+00  0.0000E+00  0.0000E+00   -1.0000E+00
  11- 16 elastic   0.0000E+00  0.0000E+00  0.0000E+00  0.0000E+00  0.0000E+00  0.0000E+00    1.5780E+11
  12- 16 elastic   0.0000E+00  0.0000E+00  0.0000E+00  0.0000E+00  0.0000E+00  0.0000E+00    1.5780E+11
  13- 16 elastic   0.0000E+00  0.0000E+00  0.0000E+00  0.0000E+00  0.0000E+00  0.0000E+00   -1.0000E+00
  14- 16 elastic   0.0000E+00  0.0000E+00  0.0000E+00  0.0000E+00  0.0000E+00  0.0000E+00   -1.0000E+00
  15- 16 elastic   0.0000E+00  0.0000E+00  0.0000E+00  0.0000E+00  0.0000E+00  0.0000E+00    1.5780E+11
  16- 16 elastic   0.0000E+00  0.0000E+00  0.0000E+00  0.0000E+00  0.0000E+00  0.0000E+00    1.5780E+11
      72-    100
   1- 16 elastic   0.0000E+00  0.0000E+00  0.0000E+00  0.0000E+00  0.0000E+00  0.0000E+00    1.5780E+11
   2- 16 elastic   0.0000E+00  0.0000E+00  0.0000E+00  0.0000E+00  0.0000E+00  0.0000E+00    1.5780E+11
   3- 16 elastic   0.0000E+00  0.0000E+00  0.0000E+00  0.0000E+00  0.0000E+00  0.0000E+00   -1.0000E+00
   4- 16 elastic   0.0000E+00  0.0000E+00  0.0000E+00  0.0000E+00  0.0000E+00  0.0000E+00   -1.0000E+00
   5- 16 elastic   0.0000E+00  0.0000E+00  0.0000E+00  0.0000E+00  0.0000E+00  0.0000E+00    1.5780E+11
   6- 16 elastic   0.0000E+00  0.0000E+00  0.0000E+00  0.0000E+00  0.0000E+00  0.0000E+00    1.5780E+11
   7- 16 elastic   0.0000E+00  0.0000E+00  0.0000E+00  0.0000E+00  0.0000E+00  0.0000E+00   -1.0000E+00
   8- 16 elastic   0.0000E+00  0.0000E+00  0.0000E+00  0.0000E+00  0.0000E+00  0.0000E+00   -1.0000E+00
   9- 16 elastic   0.0000E+00  0.0000E+00  0.0000E+00  0.0000E+00  0.0000E+00  0.0000E+00   -1.0000E+00
  10- 16 elastic   0.0000E+00  0.0000E+00  0.0000E+00  0.0000E+00  0.0000E+00  0.0000E+00   -1.0000E+00
  11- 16 elastic   0.0000E+00  0.0000E+00  0.0000E+00  0.0000E+00  0.0000E+00  0.0000E+00    1.5780E+11
  12- 16 elastic   0.0000E+00  0.0000E+00  0.0000E+00  0.0000E+00  0.0000E+00  0.0000E+00    1.5780E+11
  13- 16 elastic   0.0000E+00  0.0000E+00  0.0000E+00  0.0000E+00  0.0000E+00  0.0000E+00   -1.0000E+00
  14- 16 elastic   0.0000E+00  0.0000E+00  0.0000E+00  0.0000E+00  0.0000E+00  0.0000E+00   -1.0000E+00
  15- 16 elastic   0.0000E+00  0.0000E+00  0.0000E+00  0.0000E+00  0.0000E+00  0.0000E+00    1.5780E+11
  16- 16 elastic   0.0000E+00  0.0000E+00  0.0000E+00  0.0000E+00  0.0000E+00  0.0000E+00    1.5780E+11
      73-    100
   1- 16 elastic   0.0000E+00  0.0000E+00  0.0000E+00  0.0000E+00  0.0000E+00  0.0000E+00    1.5780E+11
   2- 16 elastic   0.0000E+00  0.0000E+00  0.0000E+00  0.0000E+00  0.0000E+00  0.0000E+00    1.5780E+11
   3- 16 elastic   0.0000E+00  0.0000E+00  0.0000E+00  0.0000E+00  0.0000E+00  0.0000E+00   -1.0000E+00
   4- 16 elastic   0.0000E+00  0.0000E+00  0.0000E+00  0.0000E+00  0.0000E+00  0.0000E+00   -1.0000E+00
   5- 16 elastic   0.0000E+00  0.0000E+00  0.0000E+00  0.0000E+00  0.0000E+00  0.0000E+00    1.5780E+11
   6- 16 elastic   0.0000E+00  0.0000E+00  0.0000E+00  0.0000E+00  0.0000E+00  0.0000E+00    1.5780E+11
   7- 16 elastic   0.0000E+00  0.0000E+00  0.0000E+00  0.0000E+00  0.0000E+00  0.0000E+00   -1.0000E+00
   8- 16 elastic   0.0000E+00  0.0000E+00  0.0000E+00  0.0000E+00  0.0000E+00  0.0000E+00   -1.0000E+00
   9- 16 elastic   0.0000E+00  0.0000E+00  0.0000E+00  0.0000E+00  0.0000E+00  0.0000E+00   -1.0000E+00
  10- 16 elastic   0.0000E+00  0.0000E+00  0.0000E+00  0.0000E+00  0.0000E+00  0.0000E+00   -1.0000E+00
  11- 16 elastic   0.0000E+00  0.0000E+00  0.0000E+00  0.0000E+00  0.0000E+00  0.0000E+00    1.5780E+11
  12- 16 elastic   0.0000E+00  0.0000E+00  0.0000E+00  0.0000E+00  0.0000E+00  0.0000E+00    1.5780E+11
  13- 16 elastic   0.0000E+00  0.0000E+00  0.0000E+00  0.0000E+00  0.0000E+00  0.0000E+00   -1.0000E+00
  14- 16 elastic   0.0000E+00  0.0000E+00  0.0000E+00  0.0000E+00  0.0000E+00  0.0000E+00   -1.0000E+00
  15- 16 elastic   0.0000E+00  0.0000E+00  0.0000E+00  0.0000E+00  0.0000E+00  0.0000E+00    1.5780E+11
  16- 16 elastic   0.0000E+00  0.0000E+00  0.0000E+00  0.0000E+00  0.0000E+00  0.0000E+00    1.5780E+11
      74-    100
   1- 16 elastic   0.0000E+00  0.0000E+00  0.0000E+00  0.0000E+00  0.0000E+00  0.0000E+00    1.5780E+11
   2- 16 elastic   0.0000E+00  0.0000E+00  0.0000E+00  0.0000E+00  0.0000E+00  0.0000E+00    1.5780E+11
   3- 16 elastic   0.0000E+00  0.0000E+00  0.0000E+00  0.0000E+00  0.0000E+00  0.0000E+00   -1.0000E+00
   4- 16 elastic   0.0000E+00  0.0000E+00  0.0000E+00  0.0000E+00  0.0000E+00  0.0000E+00   -1.0000E+00
   5- 16 elastic   0.0000E+00  0.0000E+00  0.0000E+00  0.0000E+00  0.0000E+00  0.0000E+00    1.5780E+11
   6- 16 elastic   0.0000E+00  0.0000E+00  0.0000E+00  0.0000E+00  0.0000E+00  0.0000E+00    1.5780E+11
   7- 16 elastic   0.0000E+00  0.0000E+00  0.0000E+00  0.0000E+00  0.0000E+00  0.0000E+00   -1.0000E+00
   8- 16 elastic   0.0000E+00  0.0000E+00  0.0000E+00  0.0000E+00  0.0000E+00  0.0000E+00   -1.0000E+00
   9- 16 elastic   0.0000E+00  0.0000E+00  0.0000E+00  0.0000E+00  0.0000E+00  0.0000E+00   -1.0000E+00
  10- 16 elastic   0.0000E+00  0.0000E+00  0.0000E+00  0.0000E+00  0.0000E+00  0.0000E+00   -1.0000E+00
  11- 16 elastic   0.0000E+00  0.0000E+00  0.0000E+00  0.0000E+00  0.0000E+00  0.0000E+00    1.5780E+11
  12- 16 elastic   0.0000E+00  0.0000E+00  0.0000E+00  0.0000E+00  0.0000E+00  0.0000E+00    1.5780E+11
  13- 16 elastic   0.0000E+00  0.0000E+00  0.0000E+00  0.0000E+00  0.0000E+00  0.0000E+00   -1.0000E+00
  14- 16 elastic   0.0000E+00  0.0000E+00  0.0000E+00  0.0000E+00  0.0000E+00  0.0000E+00   -1.0000E+00
  15- 16 elastic   0.0000E+00  0.0000E+00  0.0000E+00  0.0000E+00  0.0000E+00  0.0000E+00    1.5780E+11
  16- 16 elastic   0.0000E+00  0.0000E+00  0.0000E+00  0.0000E+00  0.0000E+00  0.0000E+00    1.5780E+11
      81-    100
   1- 16 elastic   0.0000E+00  0.0000E+00  0.0000E+00  0.0000E+00  0.0000E+00  0.0000E+00    1.5780E+11
   2- 16 elastic   0.0000E+00  0.0000E+00  0.0000E+00  0.0000E+00  0.0000E+00  0.0000E+00    1.5780E+11
   3- 16 elastic   0.0000E+00  0.0000E+00  0.0000E+00  0.0000E+00  0.0000E+00  0.0000E+00   -1.0000E+00
   4- 16 elastic   0.0000E+00  0.0000E+00  0.0000E+00  0.0000E+00  0.0000E+00  0.0000E+00   -1.0000E+00
   5- 16 elastic   0.0000E+00  0.0000E+00  0.0000E+00  0.0000E+00  0.0000E+00  0.0000E+00    1.5780E+11
   6- 16 elastic   0.0000E+00  0.0000E+00  0.0000E+00  0.0000E+00  0.0000E+00  0.0000E+00    1.5780E+11
   7- 16 elastic   0.0000E+00  0.0000E+00  0.0000E+00  0.0000E+00  0.0000E+00  0.0000E+00   -1.0000E+00
   8- 16 elastic   0.0000E+00  0.0000E+00  0.0000E+00  0.0000E+00  0.0000E+00  0.0000E+00   -1.0000E+00
   9- 16 elastic   0.0000E+00  0.0000E+00  0.0000E+00  0.0000E+00  0.0000E+00  0.0000E+00   -1.0000E+00
  10- 16 elastic   0.0000E+00  0.0000E+00  0.0000E+00  0.0000E+00  0.0000E+00  0.0000E+00   -1.0000E+00
  11- 16 elastic   0.0000E+00  0.0000E+00  0.0000E+00  0.0000E+00  0.0000E+00  0.0000E+00    1.5780E+11
  12- 16 elastic   0.0000E+00  0.0000E+00  0.0000E+00  0.0000E+00  0.0000E+00  0.0000E+00    1.5780E+11
  13- 16 elastic   0.0000E+00  0.0000E+00  0.0000E+00  0.0000E+00  0.0000E+00  0.0000E+00   -1.0000E+00
  14- 16 elastic   0.0000E+00  0.0000E+00  0.0000E+00  0.0000E+00  0.0000E+00  0.0000E+00   -1.0000E+00
  15- 16 elastic   0.0000E+00  0.0000E+00  0.0000E+00  0.0000E+00  0.0000E+00  0.0000E+00    1.5780E+11
  16- 16 elastic   0.0000E+00  0.0000E+00  0.0000E+00  0.0000E+00  0.0000E+00  0.0000E+00    1.5780E+11
      82-    100
   1- 16 elastic   0.0000E+00  0.0000E+00  0.0000E+00  0.0000E+00  0.0000E+00  0.0000E+00    1.5780E+11
   2- 16 elastic   0.0000E+00  0.0000E+00  0.0000E+00  0.0000E+00  0.0000E+00  0.0000E+00    1.5780E+11
   3- 16 elastic   0.0000E+00  0.0000E+00  0.0000E+00  0.0000E+00  0.0000E+00  0.0000E+00   -1.0000E+00
   4- 16 elastic   0.0000E+00  0.0000E+00  0.0000E+00  0.0000E+00  0.0000E+00  0.0000E+00   -1.0000E+00
   5- 16 elastic   0.0000E+00  0.0000E+00  0.0000E+00  0.0000E+00  0.0000E+00  0.0000E+00    1.5780E+11
   6- 16 elastic   0.0000E+00  0.0000E+00  0.0000E+00  0.0000E+00  0.0000E+00  0.0000E+00    1.5780E+11
   7- 16 elastic   0.0000E+00  0.0000E+00  0.0000E+00  0.0000E+00  0.0000E+00  0.0000E+00   -1.0000E+00
   8- 16 elastic   0.0000E+00  0.0000E+00  0.0000E+00  0.0000E+00  0.0000E+00  0.0000E+00   -1.0000E+00
   9- 16 elastic   0.0000E+00  0.0000E+00  0.0000E+00  0.0000E+00  0.0000E+00  0.0000E+00   -1.0000E+00
  10- 16 elastic   0.0000E+00  0.0000E+00  0.0000E+00  0.0000E+00  0.0000E+00  0.0000E+00   -1.0000E+00
  11- 16 elastic   0.0000E+00  0.0000E+00  0.0000E+00  0.0000E+00  0.0000E+00  0.0000E+00    1.5780E+11
  12- 16 elastic   0.0000E+00  0.0000E+00  0.0000E+00  0.0000E+00  0.0000E+00  0.0000E+00    1.5780E+11
  13- 16 elastic   0.0000E+00  0.0000E+00  0.0000E+00  0.0000E+00  0.0000E+00  0.0000E+00   -1.0000E+00
  14- 16 elastic   0.0000E+00  0.0000E+00  0.0000E+00  0.0000E+00  0.0000E+00  0.0000E+00   -1.0000E+00
  15- 16 elastic   0.0000E+00  0.0000E+00  0.0000E+00  0.0000E+00  0.0000E+00  0.0000E+00    1.5780E+11
  16- 16 elastic   0.0000E+00  0.0000E+00  0.0000E+00  0.0000E+00  0.0000E+00  0.0000E+00    1.5780E+11
      83-    100
   1- 16 elastic   0.0000E+00  0.0000E+00  0.0000E+00  0.0000E+00  0.0000E+00  0.0000E+00    1.5780E+11
   2- 16 elastic   0.0000E+00  0.0000E+00  0.0000E+00  0.0000E+00  0.0000E+00  0.0000E+00    1.5780E+11
   3- 16 elastic   0.0000E+00  0.0000E+00  0.0000E+00  0.0000E+00  0.0000E+00  0.0000E+00   -1.0000E+00
   4- 16 elastic   0.0000E+00  0.0000E+00  0.0000E+00  0.0000E+00  0.0000E+00  0.0000E+00   -1.0000E+00
   5- 16 elastic   0.0000E+00  0.0000E+00  0.0000E+00  0.0000E+00  0.0000E+00  0.0000E+00    1.5780E+11
   6- 16 elastic   0.0000E+00  0.0000E+00  0.0000E+00  0.0000E+00  0.0000E+00  0.0000E+00    1.5780E+11
   7- 16 elastic   0.0000E+00  0.0000E+00  0.0000E+00  0.0000E+00  0.0000E+00  0.0000E+00   -1.0000E+00
   8- 16 elastic   0.0000E+00  0.0000E+00  0.0000E+00  0.0000E+00  0.0000E+00  0.0000E+00   -1.0000E+00
   9- 16 elastic   0.0000E+00  0.0000E+00  0.0000E+00  0.0000E+00  0.0000E+00  0.0000E+00   -1.0000E+00
  10- 16 elastic   0.0000E+00  0.0000E+00  0.0000E+00  0.0000E+00  0.0000E+00  0.0000E+00   -1.0000E+00
  11- 16 elastic   0.0000E+00  0.0000E+00  0.0000E+00  0.0000E+00  0.0000E+00  0.0000E+00    1.5780E+11
  12- 16 elastic   0.0000E+00  0.0000E+00  0.0000E+00  0.0000E+00  0.0000E+00  0.0000E+00    1.5780E+11
  13- 16 elastic   0.0000E+00  0.0000E+00  0.0000E+00  0.0000E+00  0.0000E+00  0.0000E+00   -1.0000E+00
  14- 16 elastic   0.0000E+00  0.0000E+00  0.0000E+00  0.0000E+00  0.0000E+00  0.0000E+00   -1.0000E+00
  15- 16 elastic   0.0000E+00  0.0000E+00  0.0000E+00  0.0000E+00  0.0000E+00  0.0000E+00    1.5780E+11
  16- 16 elastic   0.0000E+00  0.0000E+00  0.0000E+00  0.0000E+00  0.0000E+00  0.0000E+00    1.5780E+11
      84-    100
   1- 16 elastic   0.0000E+00  0.0000E+00  0.0000E+00  0.0000E+00  0.0000E+00  0.0000E+00    1.5780E+11
   2- 16 elastic   0.0000E+00  0.0000E+00  0.0000E+00  0.0000E+00  0.0000E+00  0.0000E+00    1.5780E+11
   3- 16 elastic   0.0000E+00  0.0000E+00  0.0000E+00  0.0000E+00  0.0000E+00  0.0000E+00   -1.0000E+00
   4- 16 elastic   0.0000E+00  0.0000E+00  0.0000E+00  0.0000E+00  0.0000E+00  0.0000E+00   -1.0000E+00
   5- 16 elastic   0.0000E+00  0.0000E+00  0.0000E+00  0.0000E+00  0.0000E+00  0.0000E+00    1.5780E+11
   6- 16 elastic   0.0000E+00  0.0000E+00  0.0000E+00  0.0000E+00  0.0000E+00  0.0000E+00    1.5780E+11
   7- 16 elastic   0.0000E+00  0.0000E+00  0.0000E+00  0.0000E+00  0.0000E+00  0.0000E+00   -1.0000E+00
   8- 16 elastic   0.0000E+00  0.0000E+00  0.0000E+00  0.0000E+00  0.0000E+00  0.0000E+00   -1.0000E+00
   9- 16 elastic   0.0000E+00  0.0000E+00  0.0000E+00  0.0000E+00  0.0000E+00  0.0000E+00   -1.0000E+00
  10- 16 elastic   0.0000E+00  0.0000E+00  0.0000E+00  0.0000E+00  0.0000E+00  0.0000E+00   -1.0000E+00
  11- 16 elastic   0.0000E+00  0.0000E+00  0.0000E+00  0.0000E+00  0.0000E+00  0.0000E+00    1.5780E+11
  12- 16 elastic   0.0000E+00  0.0000E+00  0.0000E+00  0.0000E+00  0.0000E+00  0.0000E+00    1.5780E+11
  13- 16 elastic   0.0000E+00  0.0000E+00  0.0000E+00  0.0000E+00  0.0000E+00  0.0000E+00   -1.0000E+00
  14- 16 elastic   0.0000E+00  0.0000E+00  0.0000E+00  0.0000E+00  0.0000E+00  0.0000E+00   -1.0000E+00
  15- 16 elastic   0.0000E+00  0.0000E+00  0.0000E+00  0.0000E+00  0.0000E+00  0.0000E+00    1.5780E+11
  16- 16 elastic   0.0000E+00  0.0000E+00  0.0000E+00  0.0000E+00  0.0000E+00  0.0000E+00    1.5780E+11
      85-    100
   1- 16 elastic   0.0000E+00  0.0000E+00  0.0000E+00  0.0000E+00  0.0000E+00  0.0000E+00    1.5780E+11
   2- 16 elastic   0.0000E+00  0.0000E+00  0.0000E+00  0.0000E+00  0.0000E+00  0.0000E+00    1.5780E+11
   3- 16 elastic   0.0000E+00  0.0000E+00  0.0000E+00  0.0000E+00  0.0000E+00  0.0000E+00   -1.0000E+00
   4- 16 elastic   0.0000E+00  0.0000E+00  0.0000E+00  0.0000E+00  0.0000E+00  0.0000E+00   -1.0000E+00
   5- 16 elastic   0.0000E+00  0.0000E+00  0.0000E+00  0.0000E+00  0.0000E+00  0.0000E+00    1.5780E+11
   6- 16 elastic   0.0000E+00  0.0000E+00  0.0000E+00  0.0000E+00  0.0000E+00  0.0000E+00    1.5780E+11
   7- 16 elastic   0.0000E+00  0.0000E+00  0.0000E+00  0.0000E+00  0.0000E+00  0.0000E+00   -1.0000E+00
   8- 16 elastic   0.0000E+00  0.0000E+00  0.0000E+00  0.0000E+00  0.0000E+00  0.0000E+00   -1.0000E+00
   9- 16 elastic   0.0000E+00  0.0000E+00  0.0000E+00  0.0000E+00  0.0000E+00  0.0000E+00   -1.0000E+00
  10- 16 elastic   0.0000E+00  0.0000E+00  0.0000E+00  0.0000E+00  0.0000E+00  0.0000E+00   -1.0000E+00
  11- 16 elastic   0.0000E+00  0.0000E+00  0.0000E+00  0.0000E+00  0.0000E+00  0.0000E+00    1.5780E+11
  12- 16 elastic   0.0000E+00  0.0000E+00  0.0000E+00  0.0000E+00  0.0000E+00  0.0000E+00    1.5780E+11
  13- 16 elastic   0.0000E+00  0.0000E+00  0.0000E+00  0.0000E+00  0.0000E+00  0.0000E+00   -1.0000E+00
  14- 16 elastic   0.0000E+00  0.0000E+00  0.0000E+00  0.0000E+00  0.0000E+00  0.0000E+00   -1.0000E+00
  15- 16 elastic   0.0000E+00  0.0000E+00  0.0000E+00  0.0000E+00  0.0000E+00  0.0000E+00    1.5780E+11
  16- 16 elastic   0.0000E+00  0.0000E+00  0.0000E+00  0.0000E+00  0.0000E+00  0.0000E+00    1.5780E+11

 strains (lamina)      eps-xx      eps-yy      eps-zz      eps-xy      eps-yz      eps-zx                                    
                                                                                                                     
      37-    100
 lower surface     0.0000E+00  0.0000E+00  0.0000E+00  0.0000E+00  0.0000E+00  0.0000E+00
 upper surface     0.0000E+00  0.0000E+00  0.0000E+00  0.0000E+00  0.0000E+00  0.0000E+00
      38-    100
 lower surface     0.0000E+00  0.0000E+00  0.0000E+00  0.0000E+00  0.0000E+00  0.0000E+00
 upper surface     0.0000E+00  0.0000E+00  0.0000E+00  0.0000E+00  0.0000E+00  0.0000E+00
      39-    100
 lower surface     0.0000E+00  0.0000E+00  0.0000E+00  0.0000E+00  0.0000E+00  0.0000E+00
 upper surface     0.0000E+00  0.0000E+00  0.0000E+00  0.0000E+00  0.0000E+00  0.0000E+00
      40-    100
 lower surface     0.0000E+00  0.0000E+00  0.0000E+00  0.0000E+00  0.0000E+00  0.0000E+00
 upper surface     0.0000E+00  0.0000E+00  0.0000E+00  0.0000E+00  0.0000E+00  0.0000E+00
      41-    100
 lower surface     0.0000E+00  0.0000E+00  0.0000E+00  0.0000E+00  0.0000E+00  0.0000E+00
 upper surface     0.0000E+00  0.0000E+00  0.0000E+00  0.0000E+00  0.0000E+00  0.0000E+00
      48-    100
 lower surface     0.0000E+00  0.0000E+00  0.0000E+00  0.0000E+00  0.0000E+00  0.0000E+00
 upper surface     0.0000E+00  0.0000E+00  0.0000E+00  0.0000E+00  0.0000E+00  0.0000E+00
      49-    100
 lower surface     0.0000E+00  0.0000E+00  0.0000E+00  0.0000E+00  0.0000E+00  0.0000E+00
 upper surface     0.0000E+00  0.0000E+00  0.0000E+00  0.0000E+00  0.0000E+00  0.0000E+00
      50-    100
 lower surface     0.0000E+00  0.0000E+00  0.0000E+00  0.0000E+00  0.0000E+00  0.0000E+00
 upper surface     0.0000E+00  0.0000E+00  0.0000E+00  0.0000E+00  0.0000E+00  0.0000E+00
      51-    100
 lower surface     0.0000E+00  0.0000E+00  0.0000E+00  0.0000E+00  0.0000E+00  0.0000E+00
 upper surface     0.0000E+00  0.0000E+00  0.0000E+00  0.0000E+00  0.0000E+00  0.0000E+00
      52-    100
 lower surface     0.0000E+00  0.0000E+00  0.0000E+00  0.0000E+00  0.0000E+00  0.0000E+00
 upper surface     0.0000E+00  0.0000E+00  0.0000E+00  0.0000E+00  0.0000E+00  0.0000E+00
      59-    100
 lower surface     0.0000E+00  0.0000E+00  0.0000E+00  0.0000E+00  0.0000E+00  0.0000E+00
 upper surface     0.0000E+00  0.0000E+00  0.0000E+00  0.0000E+00  0.0000E+00  0.0000E+00
      60-    100
 lower surface     0.0000E+00  0.0000E+00  0.0000E+00  0.0000E+00  0.0000E+00  0.0000E+00
 upper surface     0.0000E+00  0.0000E+00  0.0000E+00  0.0000E+00  0.0000E+00  0.0000E+00
      61-    100
 lower surface     0.0000E+00  0.0000E+00  0.0000E+00  0.0000E+00  0.0000E+00  0.0000E+00
 upper surface     0.0000E+00  0.0000E+00  0.0000E+00  0.0000E+00  0.0000E+00  0.0000E+00
      62-    100
 lower surface     0.0000E+00  0.0000E+00  0.0000E+00  0.0000E+00  0.0000E+00  0.0000E+00
 upper surface     0.0000E+00  0.0000E+00  0.0000E+00  0.0000E+00  0.0000E+00  0.0000E+00
      63-    100
 lower surface     0.0000E+00  0.0000E+00  0.0000E+00  0.0000E+00  0.0000E+00  0.0000E+00
 upper surface     0.0000E+00  0.0000E+00  0.0000E+00  0.0000E+00  0.0000E+00  0.0000E+00
      70-    100
 lower surface     0.0000E+00  0.0000E+00  0.0000E+00  0.0000E+00  0.0000E+00  0.0000E+00
 upper surface     0.0000E+00  0.0000E+00  0.0000E+00  0.0000E+00  0.0000E+00  0.0000E+00
      71-    100
 lower surface     0.0000E+00  0.0000E+00  0.0000E+00  0.0000E+00  0.0000E+00  0.0000E+00
 upper surface     0.0000E+00  0.0000E+00  0.0000E+00  0.0000E+00  0.0000E+00  0.0000E+00
      72-    100
 lower surface     0.0000E+00  0.0000E+00  0.0000E+00  0.0000E+00  0.0000E+00  0.0000E+00
 upper surface     0.0000E+00  0.0000E+00  0.0000E+00  0.0000E+00  0.0000E+00  0.0000E+00
      73-    100
 lower surface     0.0000E+00  0.0000E+00  0.0000E+00  0.0000E+00  0.0000E+00  0.0000E+00
 upper surface     0.0000E+00  0.0000E+00  0.0000E+00  0.0000E+00  0.0000E+00  0.0000E+00
      74-    100
 lower surface     0.0000E+00  0.0000E+00  0.0000E+00  0.0000E+00  0.0000E+00  0.0000E+00
 upper surface     0.0000E+00  0.0000E+00  0.0000E+00  0.0000E+00  0.0000E+00  0.0000E+00
      81-    100
 lower surface     0.0000E+00  0.0000E+00  0.0000E+00  0.0000E+00  0.0000E+00  0.0000E+00
 upper surface     0.0000E+00  0.0000E+00  0.0000E+00  0.0000E+00  0.0000E+00  0.0000E+00
      82-    100
 lower surface     0.0000E+00  0.0000E+00  0.0000E+00  0.0000E+00  0.0000E+00  0.0000E+00
 upper surface     0.0000E+00  0.0000E+00  0.0000E+00  0.0000E+00  0.0000E+00  0.0000E+00
      83-    100
 lower surface     0.0000E+00  0.0000E+00  0.0000E+00  0.0000E+00  0.0000E+00  0.0000E+00
 upper surface     0.0000E+00  0.0000E+00  0.0000E+00  0.0000E+00  0.0000E+00  0.0000E+00
      84-    100
 lower surface     0.0000E+00  0.0000E+00  0.0000E+00  0.0000E+00  0.0000E+00  0.0000E+00
 upper surface     0.0000E+00  0.0000E+00  0.0000E+00  0.0000E+00  0.0000E+00  0.0000E+00
      85-    100
 lower surface     0.0000E+00  0.0000E+00  0.0000E+00  0.0000E+00  0.0000E+00  0.0000E+00
 upper surface     0.0000E+00  0.0000E+00  0.0000E+00  0.0000E+00  0.0000E+00  0.0000E+00



 e l e m e n t   s t r e s s   c a l c u l a t i o n s   f o r   t i m e  s t e p      202   ( at time 5.00000E-01 )

 element  materl(lamina)
 ipt-shl  stress       sig-xx      sig-yy      sig-zz      sig-xy      sig-yz      sig-zx       plastic
           state                                                                                 strain 
      37-    100
   1- 16 elastic  -1.3955E+06 -1.3355E+05  0.0000E+00  3.2302E+04  2.2481E+03  5.4855E+03    1.5780E+11
   2- 16 elastic  -1.2075E+06 -1.1556E+05  0.0000E+00  2.7995E+04  2.2481E+03  5.4855E+03    1.5780E+11
   3- 16 elastic  -6.9608E-16 -7.2929E-15  0.0000E+00  1.6915E-16 -2.6121E-07 -3.3712E-07   -1.0000E+00
   4- 16 elastic  -5.6779E-16 -5.9488E-15  0.0000E+00  1.3840E-16 -2.6121E-07 -3.3712E-07   -1.0000E+00
   5- 16 elastic  -6.4379E+05 -6.1612E+04  0.0000E+00  1.5074E+04  2.2481E+03  5.4855E+03    1.5780E+11
   6- 16 elastic  -4.5587E+05 -4.3629E+04  0.0000E+00  1.0767E+04  2.2481E+03  5.4855E+03    1.5780E+11
   7- 16 elastic  -1.8293E-16 -1.9167E-15  0.0000E+00  4.6133E-17 -2.6121E-07 -3.3712E-07   -1.0000E+00
   8- 16 elastic  -5.4644E-17 -5.7262E-16  0.0000E+00  1.5378E-17 -2.6121E-07 -3.3712E-07   -1.0000E+00
   9- 16 elastic   7.3644E-17  7.7143E-16  0.0000E+00 -1.5377E-17 -2.6121E-07 -3.3712E-07   -1.0000E+00
  10- 16 elastic   2.0193E-16  2.1155E-15  0.0000E+00 -4.6132E-17 -2.6121E-07 -3.3712E-07   -1.0000E+00
  11- 16 elastic   4.8371E+05  4.6289E+04  0.0000E+00 -1.0767E+04  2.2481E+03  5.4855E+03    1.5780E+11
  12- 16 elastic   6.7163E+05  6.4273E+04  0.0000E+00 -1.5074E+04  2.2481E+03  5.4855E+03    1.5780E+11
  13- 16 elastic   5.8680E-16  6.1476E-15  0.0000E+00 -1.3840E-16 -2.6121E-07 -3.3712E-07   -1.0000E+00
  14- 16 elastic   7.1508E-16  7.4917E-15  0.0000E+00 -1.6915E-16 -2.6121E-07 -3.3712E-07   -1.0000E+00
  15- 16 elastic   1.2354E+06  1.1822E+05  0.0000E+00 -2.7995E+04  2.2481E+03  5.4855E+03    1.5780E+11
  16- 16 elastic   1.4233E+06  1.3621E+05  0.0000E+00 -3.2302E+04  2.2481E+03  5.4855E+03    1.5780E+11
      38-    100
   1- 16 elastic  -1.5935E+06 -1.5218E+05  0.0000E+00  1.6826E+04  2.5251E+03  2.8586E+03    1.5780E+11
   2- 16 elastic  -1.3792E+06 -1.3167E+05  0.0000E+00  1.4583E+04  2.5251E+03  2.8586E+03    1.5780E+11
   3- 16 elastic  -7.9473E-16 -8.3025E-15  0.0000E+00  8.8113E-17 -2.9340E-07 -1.7568E-07   -1.0000E+00
   4- 16 elastic  -6.4842E-16 -6.7695E-15  0.0000E+00  7.2093E-17 -2.9340E-07 -1.7568E-07   -1.0000E+00
   5- 16 elastic  -7.3626E+05 -7.0138E+04  0.0000E+00  7.8524E+03  2.5251E+03  2.8586E+03    1.5780E+11
   6- 16 elastic  -5.2194E+05 -4.9627E+04  0.0000E+00  5.6088E+03  2.5251E+03  2.8586E+03    1.5780E+11
   7- 16 elastic  -2.0948E-16 -2.1705E-15  0.0000E+00  2.4031E-17 -2.9340E-07 -1.7568E-07   -1.0000E+00
   8- 16 elastic  -6.3167E-17 -6.3747E-16  0.0000E+00  8.0107E-18 -2.9340E-07 -1.7568E-07   -1.0000E+00
   9- 16 elastic   8.3145E-17  8.9553E-16  0.0000E+00 -8.0098E-18 -2.9340E-07 -1.7568E-07   -1.0000E+00
  10- 16 elastic   2.2946E-16  2.4285E-15  0.0000E+00 -2.4030E-17 -2.9340E-07 -1.7568E-07   -1.0000E+00
  11- 16 elastic   5.4964E+05  5.2930E+04  0.0000E+00 -5.6087E+03  2.5251E+03  2.8586E+03    1.5780E+11
  12- 16 elastic   7.6395E+05  7.3442E+04  0.0000E+00 -7.8522E+03  2.5251E+03  2.8586E+03    1.5780E+11
  13- 16 elastic   6.6840E-16  7.0275E-15  0.0000E+00 -7.2092E-17 -2.9340E-07 -1.7568E-07   -1.0000E+00
  14- 16 elastic   8.1471E-16  8.5605E-15  0.0000E+00 -8.8112E-17 -2.9340E-07 -1.7568E-07   -1.0000E+00
  15- 16 elastic   1.4069E+06  1.3498E+05  0.0000E+00 -1.4583E+04  2.5251E+03  2.8586E+03    1.5780E+11
  16- 16 elastic   1.6212E+06  1.5549E+05  0.0000E+00 -1.6826E+04  2.5251E+03  2.8586E+03    1.5780E+11
      39-    100
   1- 16 elastic  -1.6614E+06 -1.5856E+05  0.0000E+00 -1.9943E-06  2.6435E+03  4.1044E-07    1.5780E+11
   2- 16 elastic  -1.4380E+06 -1.3718E+05  0.0000E+00 -1.7214E-06  2.6435E+03  4.1044E-07    1.5780E+11
   3- 16 elastic  -8.2851E-16 -8.6473E-15  0.0000E+00  6.5050E-25 -3.0715E-07 -1.8146E-17   -1.0000E+00
   4- 16 elastic  -6.7602E-16 -7.0496E-15  0.0000E+00  5.3033E-25 -3.0715E-07 -1.8146E-17   -1.0000E+00
   5- 16 elastic  -7.6794E+05 -7.3048E+04  0.0000E+00 -9.0278E-07  2.6435E+03  4.1044E-07    1.5780E+11
   6- 16 elastic  -5.4458E+05 -5.1671E+04  0.0000E+00 -6.2991E-07  2.6435E+03  4.1044E-07    1.5780E+11
   7- 16 elastic  -2.1856E-16 -2.2565E-15  0.0000E+00  1.6984E-25 -3.0715E-07 -1.8146E-17   -1.0000E+00
   8- 16 elastic  -6.6072E-17 -6.5877E-16  0.0000E+00  4.9679E-26 -3.0715E-07 -1.8146E-17   -1.0000E+00
   9- 16 elastic   8.6415E-17  9.3893E-16  0.0000E+00 -7.0485E-26 -3.0715E-07 -1.8146E-17   -1.0000E+00
  10- 16 elastic   2.3890E-16  2.5366E-15  0.0000E+00 -1.9065E-25 -3.0715E-07 -1.8146E-17   -1.0000E+00
  11- 16 elastic   5.7222E+05  5.5214E+04  0.0000E+00  7.3443E-07  2.6435E+03  4.1044E-07    1.5780E+11
  12- 16 elastic   7.9558E+05  7.6591E+04  0.0000E+00  1.0073E-06  2.6435E+03  4.1044E-07    1.5780E+11
  13- 16 elastic   6.9636E-16  7.3297E-15  0.0000E+00 -5.5114E-25 -3.0715E-07 -1.8146E-17   -1.0000E+00
  14- 16 elastic   8.4885E-16  8.9274E-15  0.0000E+00 -6.7130E-25 -3.0715E-07 -1.8146E-17   -1.0000E+00
  15- 16 elastic   1.4657E+06  1.4072E+05  0.0000E+00  1.8259E-06  2.6435E+03  4.1044E-07    1.5780E+11
  16- 16 elastic   1.6890E+06  1.6210E+05  0.0000E+00  2.0988E-06  2.6435E+03  4.1044E-07    1.5780E+11
      40-    100
   1- 16 elastic  -1.5935E+06 -1.5218E+05  0.0000E+00 -1.6826E+04  2.5251E+03 -2.8586E+03    1.5780E+11
   2- 16 elastic  -1.3792E+06 -1.3167E+05  0.0000E+00 -1.4583E+04  2.5251E+03 -2.8586E+03    1.5780E+11
   3- 16 elastic  -7.9473E-16 -8.3025E-15  0.0000E+00 -8.8113E-17 -2.9340E-07  1.7568E-07   -1.0000E+00
   4- 16 elastic  -6.4842E-16 -6.7695E-15  0.0000E+00 -7.2093E-17 -2.9340E-07  1.7568E-07   -1.0000E+00
   5- 16 elastic  -7.3626E+05 -7.0138E+04  0.0000E+00 -7.8524E+03  2.5251E+03 -2.8586E+03    1.5780E+11
   6- 16 elastic  -5.2194E+05 -4.9627E+04  0.0000E+00 -5.6088E+03  2.5251E+03 -2.8586E+03    1.5780E+11
   7- 16 elastic  -2.0948E-16 -2.1705E-15  0.0000E+00 -2.4031E-17 -2.9340E-07  1.7568E-07   -1.0000E+00
   8- 16 elastic  -6.3167E-17 -6.3747E-16  0.0000E+00 -8.0107E-18 -2.9340E-07  1.7568E-07   -1.0000E+00
   9- 16 elastic   8.3145E-17  8.9553E-16  0.0000E+00  8.0098E-18 -2.9340E-07  1.7568E-07   -1.0000E+00
  10- 16 elastic   2.2946E-16  2.4285E-15  0.0000E+00  2.4030E-17 -2.9340E-07  1.7568E-07   -1.0000E+00
  11- 16 elastic   5.4964E+05  5.2930E+04  0.0000E+00  5.6087E+03  2.5251E+03 -2.8586E+03    1.5780E+11
  12- 16 elastic   7.6395E+05  7.3442E+04  0.0000E+00  7.8522E+03  2.5251E+03 -2.8586E+03    1.5780E+11
  13- 16 elastic   6.6840E-16  7.0275E-15  0.0000E+00  7.2092E-17 -2.9340E-07  1.7568E-07   -1.0000E+00
  14- 16 elastic   8.1471E-16  8.5605E-15  0.0000E+00  8.8112E-17 -2.9340E-07  1.7568E-07   -1.0000E+00
  15- 16 elastic   1.4069E+06  1.3498E+05  0.0000E+00  1.4583E+04  2.5251E+03 -2.8586E+03    1.5780E+11
  16- 16 elastic   1.6212E+06  1.5549E+05  0.0000E+00  1.6826E+04  2.5251E+03 -2.8586E+03    1.5780E+11
      41-    100
   1- 16 elastic  -1.3955E+06 -1.3355E+05  0.0000E+00 -3.2302E+04  2.2481E+03 -5.4855E+03    1.5780E+11
   2- 16 elastic  -1.2075E+06 -1.1556E+05  0.0000E+00 -2.7995E+04  2.2481E+03 -5.4855E+03    1.5780E+11
   3- 16 elastic  -6.9608E-16 -7.2929E-15  0.0000E+00 -1.6915E-16 -2.6121E-07  3.3712E-07   -1.0000E+00
   4- 16 elastic  -5.6779E-16 -5.9488E-15  0.0000E+00 -1.3840E-16 -2.6121E-07  3.3712E-07   -1.0000E+00
   5- 16 elastic  -6.4379E+05 -6.1612E+04  0.0000E+00 -1.5074E+04  2.2481E+03 -5.4855E+03    1.5780E+11
   6- 16 elastic  -4.5587E+05 -4.3629E+04  0.0000E+00 -1.0767E+04  2.2481E+03 -5.4855E+03    1.5780E+11
   7- 16 elastic  -1.8293E-16 -1.9167E-15  0.0000E+00 -4.6133E-17 -2.6121E-07  3.3712E-07   -1.0000E+00
   8- 16 elastic  -5.4644E-17 -5.7262E-16  0.0000E+00 -1.5378E-17 -2.6121E-07  3.3712E-07   -1.0000E+00
   9- 16 elastic   7.3644E-17  7.7143E-16  0.0000E+00  1.5377E-17 -2.6121E-07  3.3712E-07   -1.0000E+00
  10- 16 elastic   2.0193E-16  2.1155E-15  0.0000E+00  4.6132E-17 -2.6121E-07  3.3712E-07   -1.0000E+00
  11- 16 elastic   4.8371E+05  4.6289E+04  0.0000E+00  1.0767E+04  2.2481E+03 -5.4855E+03    1.5780E+11
  12- 16 elastic   6.7163E+05  6.4273E+04  0.0000E+00  1.5074E+04  2.2481E+03 -5.4855E+03    1.5780E+11
  13- 16 elastic   5.8680E-16  6.1476E-15  0.0000E+00  1.3840E-16 -2.6121E-07  3.3712E-07   -1.0000E+00
  14- 16 elastic   7.1508E-16  7.4917E-15  0.0000E+00  1.6915E-16 -2.6121E-07  3.3712E-07   -1.0000E+00
  15- 16 elastic   1.2354E+06  1.1822E+05  0.0000E+00  2.7995E+04  2.2481E+03 -5.4855E+03    1.5780E+11
  16- 16 elastic   1.4233E+06  1.3621E+05  0.0000E+00  3.2302E+04  2.2481E+03 -5.4855E+03    1.5780E+11
      48-    100
   1- 16 elastic  -1.5894E+06 -1.5242E+05  0.0000E+00  1.6826E+04  1.1715E+03  6.2031E+03    1.5780E+11
   2- 16 elastic  -1.3751E+06 -1.3191E+05  0.0000E+00  1.4583E+04  1.1715E+03  6.2031E+03    1.5780E+11
   3- 16 elastic  -7.9295E-16 -8.3315E-15  0.0000E+00  8.8112E-17 -1.3612E-07 -3.8123E-07   -1.0000E+00
   4- 16 elastic  -6.4664E-16 -6.7987E-15  0.0000E+00  7.2092E-17 -1.3612E-07 -3.8123E-07   -1.0000E+00
   5- 16 elastic  -7.3209E+05 -7.0384E+04  0.0000E+00  7.8523E+03  1.1715E+03  6.2031E+03    1.5780E+11
   6- 16 elastic  -5.1776E+05 -4.9875E+04  0.0000E+00  5.6088E+03  1.1715E+03  6.2031E+03    1.5780E+11
   7- 16 elastic  -2.0768E-16 -2.2003E-15  0.0000E+00  2.4031E-17 -1.3612E-07 -3.8123E-07   -1.0000E+00
   8- 16 elastic  -6.1365E-17 -6.6751E-16  0.0000E+00  8.0107E-18 -1.3612E-07 -3.8123E-07   -1.0000E+00
   9- 16 elastic   8.4953E-17  8.6529E-16  0.0000E+00 -8.0097E-18 -1.3612E-07 -3.8123E-07   -1.0000E+00
  10- 16 elastic   2.3127E-16  2.3981E-15  0.0000E+00 -2.4030E-17 -1.3612E-07 -3.8123E-07   -1.0000E+00
  11- 16 elastic   5.5390E+05  5.2673E+04  0.0000E+00 -5.6086E+03  1.1715E+03  6.2031E+03    1.5780E+11
  12- 16 elastic   7.6823E+05  7.3182E+04  0.0000E+00 -7.8521E+03  1.1715E+03  6.2031E+03    1.5780E+11
  13- 16 elastic   6.7022E-16  6.9965E-15  0.0000E+00 -7.2091E-17 -1.3612E-07 -3.8123E-07   -1.0000E+00
  14- 16 elastic   8.1654E-16  8.5293E-15  0.0000E+00 -8.8111E-17 -1.3612E-07 -3.8123E-07   -1.0000E+00
  15- 16 elastic   1.4112E+06  1.3471E+05  0.0000E+00 -1.4583E+04  1.1715E+03  6.2031E+03    1.5780E+11
  16- 16 elastic   1.6256E+06  1.5522E+05  0.0000E+00 -1.6826E+04  1.1715E+03  6.2031E+03    1.5780E+11
      49-    100
   1- 16 elastic  -1.8153E+06 -1.7372E+05  0.0000E+00  8.7648E+03  1.3158E+03  3.2324E+03    1.5780E+11
   2- 16 elastic  -1.5709E+06 -1.5033E+05  0.0000E+00  7.5962E+03  1.3158E+03  3.2324E+03    1.5780E+11
   3- 16 elastic  -9.0553E-16 -9.4870E-15  0.0000E+00  4.5898E-17 -1.5288E-07 -1.9865E-07   -1.0000E+00
   4- 16 elastic  -7.3866E-16 -7.7387E-15  0.0000E+00  3.7553E-17 -1.5288E-07 -1.9865E-07   -1.0000E+00
   5- 16 elastic  -8.3755E+05 -8.0153E+04  0.0000E+00  4.0903E+03  1.3158E+03  3.2324E+03    1.5780E+11
   6- 16 elastic  -5.9311E+05 -5.6761E+04  0.0000E+00  2.9216E+03  1.3158E+03  3.2324E+03    1.5780E+11
   7- 16 elastic  -2.3803E-16 -2.4939E-15  0.0000E+00  1.2518E-17 -1.5288E-07 -1.9865E-07   -1.0000E+00
   8- 16 elastic  -7.1156E-17 -7.4563E-16  0.0000E+00  4.1729E-18 -1.5288E-07 -1.9865E-07   -1.0000E+00
   9- 16 elastic   9.5719E-17  1.0026E-15  0.0000E+00 -4.1722E-18 -1.5288E-07 -1.9865E-07   -1.0000E+00
  10- 16 elastic   2.6260E-16  2.7509E-15  0.0000E+00 -1.2517E-17 -1.5288E-07 -1.9865E-07   -1.0000E+00
  11- 16 elastic   6.2910E+05  6.0201E+04  0.0000E+00 -2.9215E+03  1.3158E+03  3.2324E+03    1.5780E+11
  12- 16 elastic   8.7354E+05  8.3593E+04  0.0000E+00 -4.0902E+03  1.3158E+03  3.2324E+03    1.5780E+11
  13- 16 elastic   7.6322E-16  7.9957E-15  0.0000E+00 -3.7552E-17 -1.5288E-07 -1.9865E-07   -1.0000E+00
  14- 16 elastic   9.3010E-16  9.7440E-15  0.0000E+00 -4.5897E-17 -1.5288E-07 -1.9865E-07   -1.0000E+00
  15- 16 elastic   1.6069E+06  1.5377E+05  0.0000E+00 -7.5961E+03  1.3158E+03  3.2324E+03    1.5780E+11
  16- 16 elastic   1.8513E+06  1.7716E+05  0.0000E+00 -8.7647E+03  1.3158E+03  3.2324E+03    1.5780E+11
      50-    100
   1- 16 elastic  -1.8927E+06 -1.8101E+05  0.0000E+00 -2.4924E-06  1.3774E+03  2.3453E-07    1.5780E+11
   2- 16 elastic  -1.6380E+06 -1.5663E+05  0.0000E+00 -2.1537E-06  1.3774E+03  2.3453E-07    1.5780E+11
   3- 16 elastic  -9.4409E-16 -9.8818E-15  0.0000E+00  7.4228E-25 -1.6004E-07 -1.0725E-17   -1.0000E+00
   4- 16 elastic  -7.7017E-16 -8.0597E-15  0.0000E+00  6.0544E-25 -1.6004E-07 -1.0725E-17   -1.0000E+00
   5- 16 elastic  -8.7368E+05 -8.3489E+04  0.0000E+00 -1.1373E-06  1.3774E+03  2.3453E-07    1.5780E+11
   6- 16 elastic  -6.1892E+05 -5.9109E+04  0.0000E+00 -7.9858E-07  1.3774E+03  2.3453E-07    1.5780E+11
   7- 16 elastic  -2.4841E-16 -2.5935E-15  0.0000E+00  1.9492E-25 -1.6004E-07 -1.0725E-17   -1.0000E+00
   8- 16 elastic  -7.4496E-17 -7.7148E-16  0.0000E+00  5.8081E-26 -1.6004E-07 -1.0725E-17   -1.0000E+00
   9- 16 elastic   9.9422E-17  1.0506E-15  0.0000E+00 -7.8759E-26 -1.6004E-07 -1.0725E-17   -1.0000E+00
  10- 16 elastic   2.7334E-16  2.8726E-15  0.0000E+00 -2.1560E-25 -1.6004E-07 -1.0725E-17   -1.0000E+00
  11- 16 elastic   6.5486E+05  6.2789E+04  0.0000E+00  8.9527E-07  1.3774E+03  2.3453E-07    1.5780E+11
  12- 16 elastic   9.0962E+05  8.7168E+04  0.0000E+00  1.2340E-06  1.3774E+03  2.3453E-07    1.5780E+11
  13- 16 elastic   7.9509E-16  8.3388E-15  0.0000E+00 -6.2612E-25 -1.6004E-07 -1.0725E-17   -1.0000E+00
  14- 16 elastic   9.6901E-16  1.0161E-14  0.0000E+00 -7.6296E-25 -1.6004E-07 -1.0725E-17   -1.0000E+00
  15- 16 elastic   1.6739E+06  1.6031E+05  0.0000E+00  2.2503E-06  1.3774E+03  2.3453E-07    1.5780E+11
  16- 16 elastic   1.9286E+06  1.8469E+05  0.0000E+00  2.5891E-06  1.3774E+03  2.3453E-07    1.5780E+11
      51-    100
   1- 16 elastic  -1.8153E+06 -1.7372E+05  0.0000E+00 -8.7648E+03  1.3158E+03 -3.2324E+03    1.5780E+11
   2- 16 elastic  -1.5709E+06 -1.5033E+05  0.0000E+00 -7.5962E+03  1.3158E+03 -3.2324E+03    1.5780E+11
   3- 16 elastic  -9.0553E-16 -9.4870E-15  0.0000E+00 -4.5898E-17 -1.5288E-07  1.9865E-07   -1.0000E+00
   4- 16 elastic  -7.3866E-16 -7.7387E-15  0.0000E+00 -3.7553E-17 -1.5288E-07  1.9865E-07   -1.0000E+00
   5- 16 elastic  -8.3755E+05 -8.0153E+04  0.0000E+00 -4.0903E+03  1.3158E+03 -3.2324E+03    1.5780E+11
   6- 16 elastic  -5.9311E+05 -5.6761E+04  0.0000E+00 -2.9216E+03  1.3158E+03 -3.2324E+03    1.5780E+11
   7- 16 elastic  -2.3803E-16 -2.4939E-15  0.0000E+00 -1.2518E-17 -1.5288E-07  1.9865E-07   -1.0000E+00
   8- 16 elastic  -7.1156E-17 -7.4563E-16  0.0000E+00 -4.1729E-18 -1.5288E-07  1.9865E-07   -1.0000E+00
   9- 16 elastic   9.5719E-17  1.0026E-15  0.0000E+00  4.1722E-18 -1.5288E-07  1.9865E-07   -1.0000E+00
  10- 16 elastic   2.6260E-16  2.7509E-15  0.0000E+00  1.2517E-17 -1.5288E-07  1.9865E-07   -1.0000E+00
  11- 16 elastic   6.2910E+05  6.0201E+04  0.0000E+00  2.9215E+03  1.3158E+03 -3.2324E+03    1.5780E+11
  12- 16 elastic   8.7354E+05  8.3593E+04  0.0000E+00  4.0902E+03  1.3158E+03 -3.2324E+03    1.5780E+11
  13- 16 elastic   7.6322E-16  7.9957E-15  0.0000E+00  3.7552E-17 -1.5288E-07  1.9865E-07   -1.0000E+00
  14- 16 elastic   9.3010E-16  9.7440E-15  0.0000E+00  4.5897E-17 -1.5288E-07  1.9865E-07   -1.0000E+00
  15- 16 elastic   1.6069E+06  1.5377E+05  0.0000E+00  7.5961E+03  1.3158E+03 -3.2324E+03    1.5780E+11
  16- 16 elastic   1.8513E+06  1.7716E+05  0.0000E+00  8.7647E+03  1.3158E+03 -3.2324E+03    1.5780E+11
      52-    100
   1- 16 elastic  -1.5894E+06 -1.5242E+05  0.0000E+00 -1.6826E+04  1.1715E+03 -6.2031E+03    1.5780E+11
   2- 16 elastic  -1.3751E+06 -1.3191E+05  0.0000E+00 -1.4583E+04  1.1715E+03 -6.2031E+03    1.5780E+11
   3- 16 elastic  -7.9295E-16 -8.3315E-15  0.0000E+00 -8.8112E-17 -1.3612E-07  3.8123E-07   -1.0000E+00
   4- 16 elastic  -6.4664E-16 -6.7987E-15  0.0000E+00 -7.2092E-17 -1.3612E-07  3.8123E-07   -1.0000E+00
   5- 16 elastic  -7.3209E+05 -7.0384E+04  0.0000E+00 -7.8523E+03  1.1715E+03 -6.2031E+03    1.5780E+11
   6- 16 elastic  -5.1776E+05 -4.9875E+04  0.0000E+00 -5.6088E+03  1.1715E+03 -6.2031E+03    1.5780E+11
   7- 16 elastic  -2.0768E-16 -2.2003E-15  0.0000E+00 -2.4031E-17 -1.3612E-07  3.8123E-07   -1.0000E+00
   8- 16 elastic  -6.1365E-17 -6.6751E-16  0.0000E+00 -8.0107E-18 -1.3612E-07  3.8123E-07   -1.0000E+00
   9- 16 elastic   8.4953E-17  8.6529E-16  0.0000E+00  8.0097E-18 -1.3612E-07  3.8123E-07   -1.0000E+00
  10- 16 elastic   2.3127E-16  2.3981E-15  0.0000E+00  2.4030E-17 -1.3612E-07  3.8123E-07   -1.0000E+00
  11- 16 elastic   5.5390E+05  5.2673E+04  0.0000E+00  5.6086E+03  1.1715E+03 -6.2031E+03    1.5780E+11
  12- 16 elastic   7.6823E+05  7.3182E+04  0.0000E+00  7.8521E+03  1.1715E+03 -6.2031E+03    1.5780E+11
  13- 16 elastic   6.7022E-16  6.9965E-15  0.0000E+00  7.2091E-17 -1.3612E-07  3.8123E-07   -1.0000E+00
  14- 16 elastic   8.1654E-16  8.5293E-15  0.0000E+00  8.8111E-17 -1.3612E-07  3.8123E-07   -1.0000E+00
  15- 16 elastic   1.4112E+06  1.3471E+05  0.0000E+00  1.4583E+04  1.1715E+03 -6.2031E+03    1.5780E+11
  16- 16 elastic   1.6256E+06  1.5522E+05  0.0000E+00  1.6826E+04  1.1715E+03 -6.2031E+03    1.5780E+11
      59-    100
   1- 16 elastic  -1.6557E+06 -1.5889E+05  0.0000E+00 -1.0875E-06 -3.1471E-07  6.4811E+03    1.5780E+11
   2- 16 elastic  -1.4323E+06 -1.3751E+05  0.0000E+00 -9.4001E-07 -3.1471E-07  6.4811E+03    1.5780E+11
   3- 16 elastic  -8.2606E-16 -8.6874E-15  0.0000E+00  6.5838E-25  4.9190E-17 -3.9831E-07   -1.0000E+00
   4- 16 elastic  -6.7357E-16 -7.0899E-15  0.0000E+00  5.3734E-25  4.9190E-17 -3.9831E-07   -1.0000E+00
   5- 16 elastic  -7.6220E+05 -7.3387E+04  0.0000E+00 -4.9754E-07 -3.1471E-07  6.4811E+03    1.5780E+11
   6- 16 elastic  -5.3883E+05 -5.2013E+04  0.0000E+00 -3.5005E-07 -3.1471E-07  6.4811E+03    1.5780E+11
   7- 16 elastic  -2.1609E-16 -2.2975E-15  0.0000E+00  1.7422E-25  4.9190E-17 -3.9831E-07   -1.0000E+00
   8- 16 elastic  -6.3597E-17 -7.0003E-16  0.0000E+00  5.3181E-26  4.9190E-17 -3.9831E-07   -1.0000E+00
   9- 16 elastic   8.8895E-17  8.9743E-16  0.0000E+00 -6.7860E-26  4.9190E-17 -3.9831E-07   -1.0000E+00
  10- 16 elastic   2.4139E-16  2.4949E-15  0.0000E+00 -1.8890E-25  4.9190E-17 -3.9831E-07   -1.0000E+00
  11- 16 elastic   5.7806E+05  5.4862E+04  0.0000E+00  3.8741E-07 -3.1471E-07  6.4811E+03    1.5780E+11
  12- 16 elastic   8.0143E+05  7.6236E+04  0.0000E+00  5.3490E-07 -3.1471E-07  6.4811E+03    1.5780E+11
  13- 16 elastic   6.9886E-16  7.2873E-15  0.0000E+00 -5.5202E-25  4.9190E-17 -3.9831E-07   -1.0000E+00
  14- 16 elastic   8.5136E-16  8.8848E-15  0.0000E+00 -6.7306E-25  4.9190E-17 -3.9831E-07   -1.0000E+00
  15- 16 elastic   1.4716E+06  1.4036E+05  0.0000E+00  9.7737E-07 -3.1471E-07  6.4811E+03    1.5780E+11
  16- 16 elastic   1.6949E+06  1.6174E+05  0.0000E+00  1.1249E-06 -3.1471E-07  6.4811E+03    1.5780E+11
      60-    100
   1- 16 elastic  -1.8911E+06 -1.8110E+05  0.0000E+00 -2.1672E-06 -1.6819E-07  3.3771E+03    1.5780E+11
   2- 16 elastic  -1.6364E+06 -1.5672E+05  0.0000E+00 -1.8730E-06 -1.6819E-07  3.3771E+03    1.5780E+11
   3- 16 elastic  -9.4341E-16 -9.8928E-15  0.0000E+00  7.4485E-25  2.6119E-17 -2.0755E-07   -1.0000E+00
   4- 16 elastic  -7.6949E-16 -8.0708E-15  0.0000E+00  6.0770E-25  2.6119E-17 -2.0755E-07   -1.0000E+00
   5- 16 elastic  -8.7211E+05 -8.3582E+04  0.0000E+00 -9.9028E-07 -1.6819E-07  3.3771E+03    1.5780E+11
   6- 16 elastic  -6.1735E+05 -5.9203E+04  0.0000E+00 -6.9605E-07 -1.6819E-07  3.3771E+03    1.5780E+11
   7- 16 elastic  -2.4774E-16 -2.6047E-15  0.0000E+00  1.9623E-25  2.6119E-17 -2.0755E-07   -1.0000E+00
   8- 16 elastic  -7.3823E-17 -7.8270E-16  0.0000E+00  5.9073E-26  2.6119E-17 -2.0755E-07   -1.0000E+00
   9- 16 elastic   1.0009E-16  1.0393E-15  0.0000E+00 -7.8083E-26  2.6119E-17 -2.0755E-07   -1.0000E+00
  10- 16 elastic   2.7401E-16  2.8614E-15  0.0000E+00 -2.1524E-25  2.6119E-17 -2.0755E-07   -1.0000E+00
  11- 16 elastic   6.5644E+05  6.2693E+04  0.0000E+00  7.7511E-07 -1.6819E-07  3.3771E+03    1.5780E+11
  12- 16 elastic   9.1119E+05  8.7073E+04  0.0000E+00  1.0693E-06 -1.6819E-07  3.3771E+03    1.5780E+11
  13- 16 elastic   7.9577E-16  8.3274E-15  0.0000E+00 -6.2671E-25  2.6119E-17 -2.0755E-07   -1.0000E+00
  14- 16 elastic   9.6968E-16  1.0149E-14  0.0000E+00 -7.6386E-25  2.6119E-17 -2.0755E-07   -1.0000E+00
  15- 16 elastic   1.6755E+06  1.6021E+05  0.0000E+00  1.9520E-06 -1.6819E-07  3.3771E+03    1.5780E+11
  16- 16 elastic   1.9302E+06  1.8459E+05  0.0000E+00  2.2463E-06 -1.6819E-07  3.3771E+03    1.5780E+11
      61-    100
   1- 16 elastic  -1.9718E+06 -1.8870E+05  0.0000E+00 -2.5797E-06 -1.6941E-12 -6.5221E-12    1.5780E+11
   2- 16 elastic  -1.7063E+06 -1.6329E+05  0.0000E+00 -2.2295E-06 -1.6941E-12 -6.5221E-12    1.5780E+11
   3- 16 elastic  -9.8359E-16 -1.0305E-14  0.0000E+00  7.7417E-25  1.9684E-22  4.0083E-22   -1.0000E+00
   4- 16 elastic  -8.0234E-16 -8.4058E-15  0.0000E+00  6.3153E-25  1.9684E-22  4.0083E-22   -1.0000E+00
   5- 16 elastic  -9.0976E+05 -8.7063E+04  0.0000E+00 -1.1790E-06 -1.6941E-12 -6.5221E-12    1.5780E+11
   6- 16 elastic  -6.4426E+05 -6.1655E+04  0.0000E+00 -8.2879E-07 -1.6941E-12 -6.5221E-12    1.5780E+11
   7- 16 elastic  -2.5857E-16 -2.7090E-15  0.0000E+00  2.0363E-25  1.9684E-22  4.0083E-22   -1.0000E+00
   8- 16 elastic  -7.7311E-17 -8.1011E-16  0.0000E+00  6.1000E-26  1.9684E-22  4.0083E-22   -1.0000E+00
   9- 16 elastic   1.0395E-16  1.0888E-15  0.0000E+00 -8.1633E-26  1.9684E-22  4.0083E-22   -1.0000E+00
  10- 16 elastic   2.8520E-16  2.9877E-15  0.0000E+00 -2.2427E-25  1.9684E-22  4.0083E-22   -1.0000E+00
  11- 16 elastic   6.8328E+05  6.5385E+04  0.0000E+00  9.2216E-07 -1.6941E-12 -6.5221E-12    1.5780E+11
  12- 16 elastic   9.4879E+05  9.0793E+04  0.0000E+00  1.2724E-06 -1.6941E-12 -6.5221E-12    1.5780E+11
  13- 16 elastic   8.2897E-16  8.6845E-15  0.0000E+00 -6.5217E-25  1.9684E-22  4.0083E-22   -1.0000E+00
  14- 16 elastic   1.0102E-15  1.0583E-14  0.0000E+00 -7.9480E-25  1.9684E-22  4.0083E-22   -1.0000E+00
  15- 16 elastic   1.7453E+06  1.6702E+05  0.0000E+00  2.3229E-06 -1.6941E-12 -6.5221E-12    1.5780E+11
  16- 16 elastic   2.0108E+06  1.9243E+05  0.0000E+00  2.6731E-06 -1.6941E-12 -6.5221E-12    1.5780E+11
      62-    100
   1- 16 elastic  -1.8911E+06 -1.8110E+05  0.0000E+00 -2.1672E-06  1.6821E-07 -3.3771E+03    1.5780E+11
   2- 16 elastic  -1.6364E+06 -1.5672E+05  0.0000E+00 -1.8730E-06  1.6821E-07 -3.3771E+03    1.5780E+11
   3- 16 elastic  -9.4341E-16 -9.8928E-15  0.0000E+00  7.4485E-25 -2.6121E-17  2.0755E-07   -1.0000E+00
   4- 16 elastic  -7.6949E-16 -8.0708E-15  0.0000E+00  6.0770E-25 -2.6121E-17  2.0755E-07   -1.0000E+00
   5- 16 elastic  -8.7211E+05 -8.3582E+04  0.0000E+00 -9.9029E-07  1.6821E-07 -3.3771E+03    1.5780E+11
   6- 16 elastic  -6.1735E+05 -5.9203E+04  0.0000E+00 -6.9606E-07  1.6821E-07 -3.3771E+03    1.5780E+11
   7- 16 elastic  -2.4774E-16 -2.6047E-15  0.0000E+00  1.9623E-25 -2.6121E-17  2.0755E-07   -1.0000E+00
   8- 16 elastic  -7.3823E-17 -7.8270E-16  0.0000E+00  5.9073E-26 -2.6121E-17  2.0755E-07   -1.0000E+00
   9- 16 elastic   1.0009E-16  1.0393E-15  0.0000E+00 -7.8083E-26 -2.6121E-17  2.0755E-07   -1.0000E+00
  10- 16 elastic   2.7401E-16  2.8614E-15  0.0000E+00 -2.1524E-25 -2.6121E-17  2.0755E-07   -1.0000E+00
  11- 16 elastic   6.5644E+05  6.2693E+04  0.0000E+00  7.7511E-07  1.6821E-07 -3.3771E+03    1.5780E+11
  12- 16 elastic   9.1119E+05  8.7073E+04  0.0000E+00  1.0693E-06  1.6821E-07 -3.3771E+03    1.5780E+11
  13- 16 elastic   7.9577E-16  8.3274E-15  0.0000E+00 -6.2671E-25 -2.6121E-17  2.0755E-07   -1.0000E+00
  14- 16 elastic   9.6968E-16  1.0149E-14  0.0000E+00 -7.6386E-25 -2.6121E-17  2.0755E-07   -1.0000E+00
  15- 16 elastic   1.6755E+06  1.6021E+05  0.0000E+00  1.9520E-06  1.6821E-07 -3.3771E+03    1.5780E+11
  16- 16 elastic   1.9302E+06  1.8459E+05  0.0000E+00  2.2463E-06  1.6821E-07 -3.3771E+03    1.5780E+11
      63-    100
   1- 16 elastic  -1.6557E+06 -1.5889E+05  0.0000E+00 -1.0875E-06  3.1473E-07 -6.4811E+03    1.5780E+11
   2- 16 elastic  -1.4323E+06 -1.3751E+05  0.0000E+00 -9.4002E-07  3.1473E-07 -6.4811E+03    1.5780E+11
   3- 16 elastic  -8.2606E-16 -8.6874E-15  0.0000E+00  6.5838E-25 -4.9192E-17  3.9831E-07   -1.0000E+00
   4- 16 elastic  -6.7357E-16 -7.0899E-15  0.0000E+00  5.3734E-25 -4.9192E-17  3.9831E-07   -1.0000E+00
   5- 16 elastic  -7.6220E+05 -7.3387E+04  0.0000E+00 -4.9755E-07  3.1473E-07 -6.4811E+03    1.5780E+11
   6- 16 elastic  -5.3883E+05 -5.2013E+04  0.0000E+00 -3.5005E-07  3.1473E-07 -6.4811E+03    1.5780E+11
   7- 16 elastic  -2.1609E-16 -2.2975E-15  0.0000E+00  1.7422E-25 -4.9192E-17  3.9831E-07   -1.0000E+00
   8- 16 elastic  -6.3597E-17 -7.0003E-16  0.0000E+00  5.3181E-26 -4.9192E-17  3.9831E-07   -1.0000E+00
   9- 16 elastic   8.8895E-17  8.9743E-16  0.0000E+00 -6.7860E-26 -4.9192E-17  3.9831E-07   -1.0000E+00
  10- 16 elastic   2.4139E-16  2.4949E-15  0.0000E+00 -1.8890E-25 -4.9192E-17  3.9831E-07   -1.0000E+00
  11- 16 elastic   5.7806E+05  5.4862E+04  0.0000E+00  3.8741E-07  3.1473E-07 -6.4811E+03    1.5780E+11
  12- 16 elastic   8.0143E+05  7.6236E+04  0.0000E+00  5.3490E-07  3.1473E-07 -6.4811E+03    1.5780E+11
  13- 16 elastic   6.9886E-16  7.2873E-15  0.0000E+00 -5.5202E-25 -4.9192E-17  3.9831E-07   -1.0000E+00
  14- 16 elastic   8.5136E-16  8.8848E-15  0.0000E+00 -6.7306E-25 -4.9192E-17  3.9831E-07   -1.0000E+00
  15- 16 elastic   1.4716E+06  1.4036E+05  0.0000E+00  9.7738E-07  3.1473E-07 -6.4811E+03    1.5780E+11
  16- 16 elastic   1.6949E+06  1.6174E+05  0.0000E+00  1.1249E-06  3.1473E-07 -6.4811E+03    1.5780E+11
      70-    100
   1- 16 elastic  -1.5894E+06 -1.5242E+05  0.0000E+00 -1.6826E+04 -1.1715E+03  6.2031E+03    1.5780E+11
   2- 16 elastic  -1.3751E+06 -1.3191E+05  0.0000E+00 -1.4583E+04 -1.1715E+03  6.2031E+03    1.5780E+11
   3- 16 elastic  -7.9295E-16 -8.3315E-15  0.0000E+00 -8.8112E-17  1.3612E-07 -3.8123E-07   -1.0000E+00
   4- 16 elastic  -6.4664E-16 -6.7987E-15  0.0000E+00 -7.2092E-17  1.3612E-07 -3.8123E-07   -1.0000E+00
   5- 16 elastic  -7.3209E+05 -7.0384E+04  0.0000E+00 -7.8523E+03 -1.1715E+03  6.2031E+03    1.5780E+11
   6- 16 elastic  -5.1776E+05 -4.9875E+04  0.0000E+00 -5.6088E+03 -1.1715E+03  6.2031E+03    1.5780E+11
   7- 16 elastic  -2.0768E-16 -2.2003E-15  0.0000E+00 -2.4031E-17  1.3612E-07 -3.8123E-07   -1.0000E+00
   8- 16 elastic  -6.1365E-17 -6.6751E-16  0.0000E+00 -8.0107E-18  1.3612E-07 -3.8123E-07   -1.0000E+00
   9- 16 elastic   8.4953E-17  8.6529E-16  0.0000E+00  8.0097E-18  1.3612E-07 -3.8123E-07   -1.0000E+00
  10- 16 elastic   2.3127E-16  2.3981E-15  0.0000E+00  2.4030E-17  1.3612E-07 -3.8123E-07   -1.0000E+00
  11- 16 elastic   5.5390E+05  5.2673E+04  0.0000E+00  5.6086E+03 -1.1715E+03  6.2031E+03    1.5780E+11
  12- 16 elastic   7.6823E+05  7.3182E+04  0.0000E+00  7.8521E+03 -1.1715E+03  6.2031E+03    1.5780E+11
  13- 16 elastic   6.7022E-16  6.9965E-15  0.0000E+00  7.2091E-17  1.3612E-07 -3.8123E-07   -1.0000E+00
  14- 16 elastic   8.1654E-16  8.5293E-15  0.0000E+00  8.8111E-17  1.3612E-07 -3.8123E-07   -1.0000E+00
  15- 16 elastic   1.4112E+06  1.3471E+05  0.0000E+00  1.4583E+04 -1.1715E+03  6.2031E+03    1.5780E+11
  16- 16 elastic   1.6256E+06  1.5522E+05  0.0000E+00  1.6826E+04 -1.1715E+03  6.2031E+03    1.5780E+11
      71-    100
   1- 16 elastic  -1.8153E+06 -1.7372E+05  0.0000E+00 -8.7648E+03 -1.3158E+03  3.2324E+03    1.5780E+11
   2- 16 elastic  -1.5709E+06 -1.5033E+05  0.0000E+00 -7.5962E+03 -1.3158E+03  3.2324E+03    1.5780E+11
   3- 16 elastic  -9.0553E-16 -9.4870E-15  0.0000E+00 -4.5898E-17  1.5288E-07 -1.9865E-07   -1.0000E+00
   4- 16 elastic  -7.3866E-16 -7.7387E-15  0.0000E+00 -3.7553E-17  1.5288E-07 -1.9865E-07   -1.0000E+00
   5- 16 elastic  -8.3755E+05 -8.0153E+04  0.0000E+00 -4.0903E+03 -1.3158E+03  3.2324E+03    1.5780E+11
   6- 16 elastic  -5.9311E+05 -5.6761E+04  0.0000E+00 -2.9216E+03 -1.3158E+03  3.2324E+03    1.5780E+11
   7- 16 elastic  -2.3803E-16 -2.4939E-15  0.0000E+00 -1.2518E-17  1.5288E-07 -1.9865E-07   -1.0000E+00
   8- 16 elastic  -7.1156E-17 -7.4563E-16  0.0000E+00 -4.1729E-18  1.5288E-07 -1.9865E-07   -1.0000E+00
   9- 16 elastic   9.5719E-17  1.0026E-15  0.0000E+00  4.1722E-18  1.5288E-07 -1.9865E-07   -1.0000E+00
  10- 16 elastic   2.6260E-16  2.7509E-15  0.0000E+00  1.2517E-17  1.5288E-07 -1.9865E-07   -1.0000E+00
  11- 16 elastic   6.2910E+05  6.0201E+04  0.0000E+00  2.9215E+03 -1.3158E+03  3.2324E+03    1.5780E+11
  12- 16 elastic   8.7354E+05  8.3593E+04  0.0000E+00  4.0902E+03 -1.3158E+03  3.2324E+03    1.5780E+11
  13- 16 elastic   7.6322E-16  7.9957E-15  0.0000E+00  3.7552E-17  1.5288E-07 -1.9865E-07   -1.0000E+00
  14- 16 elastic   9.3010E-16  9.7440E-15  0.0000E+00  4.5897E-17  1.5288E-07 -1.9865E-07   -1.0000E+00
  15- 16 elastic   1.6069E+06  1.5377E+05  0.0000E+00  7.5961E+03 -1.3158E+03  3.2324E+03    1.5780E+11
  16- 16 elastic   1.8513E+06  1.7716E+05  0.0000E+00  8.7647E+03 -1.3158E+03  3.2324E+03    1.5780E+11
      72-    100
   1- 16 elastic  -1.8927E+06 -1.8101E+05  0.0000E+00 -2.4924E-06 -1.3774E+03 -2.3452E-07    1.5780E+11
   2- 16 elastic  -1.6380E+06 -1.5663E+05  0.0000E+00 -2.1537E-06 -1.3774E+03 -2.3452E-07    1.5780E+11
   3- 16 elastic  -9.4409E-16 -9.8818E-15  0.0000E+00  7.4228E-25  1.6004E-07  1.0724E-17   -1.0000E+00
   4- 16 elastic  -7.7017E-16 -8.0597E-15  0.0000E+00  6.0544E-25  1.6004E-07  1.0724E-17   -1.0000E+00
   5- 16 elastic  -8.7368E+05 -8.3489E+04  0.0000E+00 -1.1373E-06 -1.3774E+03 -2.3452E-07    1.5780E+11
   6- 16 elastic  -6.1892E+05 -5.9109E+04  0.0000E+00 -7.9858E-07 -1.3774E+03 -2.3452E-07    1.5780E+11
   7- 16 elastic  -2.4841E-16 -2.5935E-15  0.0000E+00  1.9492E-25  1.6004E-07  1.0724E-17   -1.0000E+00
   8- 16 elastic  -7.4496E-17 -7.7148E-16  0.0000E+00  5.8081E-26  1.6004E-07  1.0724E-17   -1.0000E+00
   9- 16 elastic   9.9422E-17  1.0506E-15  0.0000E+00 -7.8759E-26  1.6004E-07  1.0724E-17   -1.0000E+00
  10- 16 elastic   2.7334E-16  2.8726E-15  0.0000E+00 -2.1560E-25  1.6004E-07  1.0724E-17   -1.0000E+00
  11- 16 elastic   6.5486E+05  6.2789E+04  0.0000E+00  8.9526E-07 -1.3774E+03 -2.3452E-07    1.5780E+11
  12- 16 elastic   9.0962E+05  8.7168E+04  0.0000E+00  1.2340E-06 -1.3774E+03 -2.3452E-07    1.5780E+11
  13- 16 elastic   7.9509E-16  8.3388E-15  0.0000E+00 -6.2612E-25  1.6004E-07  1.0724E-17   -1.0000E+00
  14- 16 elastic   9.6901E-16  1.0161E-14  0.0000E+00 -7.6296E-25  1.6004E-07  1.0724E-17   -1.0000E+00
  15- 16 elastic   1.6739E+06  1.6031E+05  0.0000E+00  2.2503E-06 -1.3774E+03 -2.3452E-07    1.5780E+11
  16- 16 elastic   1.9286E+06  1.8469E+05  0.0000E+00  2.5891E-06 -1.3774E+03 -2.3452E-07    1.5780E+11
      73-    100
   1- 16 elastic  -1.8153E+06 -1.7372E+05  0.0000E+00  8.7648E+03 -1.3158E+03 -3.2324E+03    1.5780E+11
   2- 16 elastic  -1.5709E+06 -1.5033E+05  0.0000E+00  7.5962E+03 -1.3158E+03 -3.2324E+03    1.5780E+11
   3- 16 elastic  -9.0553E-16 -9.4870E-15  0.0000E+00  4.5898E-17  1.5288E-07  1.9865E-07   -1.0000E+00
   4- 16 elastic  -7.3866E-16 -7.7387E-15  0.0000E+00  3.7553E-17  1.5288E-07  1.9865E-07   -1.0000E+00
   5- 16 elastic  -8.3755E+05 -8.0153E+04  0.0000E+00  4.0903E+03 -1.3158E+03 -3.2324E+03    1.5780E+11
   6- 16 elastic  -5.9311E+05 -5.6761E+04  0.0000E+00  2.9216E+03 -1.3158E+03 -3.2324E+03    1.5780E+11
   7- 16 elastic  -2.3803E-16 -2.4939E-15  0.0000E+00  1.2518E-17  1.5288E-07  1.9865E-07   -1.0000E+00
   8- 16 elastic  -7.1156E-17 -7.4563E-16  0.0000E+00  4.1729E-18  1.5288E-07  1.9865E-07   -1.0000E+00
   9- 16 elastic   9.5719E-17  1.0026E-15  0.0000E+00 -4.1722E-18  1.5288E-07  1.9865E-07   -1.0000E+00
  10- 16 elastic   2.6260E-16  2.7509E-15  0.0000E+00 -1.2517E-17  1.5288E-07  1.9865E-07   -1.0000E+00
  11- 16 elastic   6.2910E+05  6.0201E+04  0.0000E+00 -2.9215E+03 -1.3158E+03 -3.2324E+03    1.5780E+11
  12- 16 elastic   8.7354E+05  8.3593E+04  0.0000E+00 -4.0902E+03 -1.3158E+03 -3.2324E+03    1.5780E+11
  13- 16 elastic   7.6322E-16  7.9957E-15  0.0000E+00 -3.7552E-17  1.5288E-07  1.9865E-07   -1.0000E+00
  14- 16 elastic   9.3010E-16  9.7440E-15  0.0000E+00 -4.5897E-17  1.5288E-07  1.9865E-07   -1.0000E+00
  15- 16 elastic   1.6069E+06  1.5377E+05  0.0000E+00 -7.5961E+03 -1.3158E+03 -3.2324E+03    1.5780E+11
  16- 16 elastic   1.8513E+06  1.7716E+05  0.0000E+00 -8.7647E+03 -1.3158E+03 -3.2324E+03    1.5780E+11
[...]
   4- 16 elastic  -1.4497E-15 -1.5188E-14  0.0000E+00 -7.4937E-17  3.0488E-07 -3.9629E-07   -1.0000E+00
   5- 16 elastic  -1.6357E+06 -1.5654E+05  0.0000E+00 -8.1621E+03 -2.6239E+03  6.4482E+03    1.5780E+11
   6- 16 elastic  -1.1479E+06 -1.0986E+05  0.0000E+00 -5.8301E+03 -2.6239E+03  6.4482E+03    1.5780E+11
   7- 16 elastic  -4.5063E-16 -4.7215E-15  0.0000E+00 -2.4980E-17  3.0488E-07 -3.9629E-07   -1.0000E+00
   8- 16 elastic  -1.1760E-16 -1.2326E-15  0.0000E+00 -8.3272E-18  3.0488E-07 -3.9629E-07   -1.0000E+00
   9- 16 elastic   2.1543E-16  2.2563E-15  0.0000E+00  8.3252E-18  3.0488E-07 -3.9629E-07   -1.0000E+00
  10- 16 elastic   5.4846E-16  5.7452E-15  0.0000E+00  2.4978E-17  3.0488E-07 -3.9629E-07   -1.0000E+00
  11- 16 elastic   1.2912E+06  1.2356E+05  0.0000E+00  5.8299E+03 -2.6239E+03  6.4482E+03    1.5780E+11
  12- 16 elastic   1.7791E+06  1.7024E+05  0.0000E+00  8.1619E+03 -2.6239E+03  6.4482E+03    1.5780E+11
  13- 16 elastic   1.5475E-15  1.6212E-14  0.0000E+00  7.4935E-17  3.0488E-07 -3.9629E-07   -1.0000E+00
  14- 16 elastic   1.8806E-15  1.9701E-14  0.0000E+00  9.1587E-17  3.0488E-07 -3.9629E-07   -1.0000E+00
  15- 16 elastic   3.2426E+06  3.1029E+05  0.0000E+00  1.5158E+04 -2.6239E+03  6.4482E+03    1.5780E+11
  16- 16 elastic   3.7304E+06  3.5697E+05  0.0000E+00  1.7490E+04 -2.6239E+03  6.4482E+03    1.5780E+11
      72-    100
   1- 16 elastic  -3.7415E+06 -3.5757E+05  0.0000E+00 -4.8763E-06 -2.7468E+03 -4.6795E-07    1.5780E+11
   2- 16 elastic  -3.2331E+06 -3.0891E+05  0.0000E+00 -4.2004E-06 -2.7468E+03 -4.6795E-07    1.5780E+11
   3- 16 elastic  -1.8593E-15 -1.9443E-14  0.0000E+00  1.4608E-24  3.1915E-07  2.1404E-17   -1.0000E+00
   4- 16 elastic  -1.5122E-15 -1.5807E-14  0.0000E+00  1.1877E-24  3.1915E-07  2.1404E-17   -1.0000E+00
   5- 16 elastic  -1.7079E+06 -1.6296E+05  0.0000E+00 -2.1727E-06 -2.7468E+03 -4.6795E-07    1.5780E+11
   6- 16 elastic  -1.1994E+06 -1.1430E+05  0.0000E+00 -1.4968E-06 -2.7468E+03 -4.6795E-07    1.5780E+11
   7- 16 elastic  -4.7097E-16 -4.8984E-15  0.0000E+00  3.6845E-25  3.1915E-07  2.1404E-17   -1.0000E+00
   8- 16 elastic  -1.2390E-16 -1.2622E-15  0.0000E+00  9.5363E-26  3.1915E-07  2.1404E-17   -1.0000E+00
   9- 16 elastic   2.2318E-16  2.3739E-15  0.0000E+00 -1.7772E-25  3.1915E-07  2.1404E-17   -1.0000E+00
  10- 16 elastic   5.7026E-16  6.0100E-15  0.0000E+00 -4.5080E-25  3.1915E-07  2.1404E-17   -1.0000E+00
  11- 16 elastic   1.3426E+06  1.2896E+05  0.0000E+00  1.8827E-06 -2.7468E+03 -4.6795E-07    1.5780E+11
  12- 16 elastic   1.8510E+06  1.7761E+05  0.0000E+00  2.5586E-06 -2.7468E+03 -4.6795E-07    1.5780E+11
  13- 16 elastic   1.6115E-15  1.6918E-14  0.0000E+00 -1.2701E-24  3.1915E-07  2.1404E-17   -1.0000E+00
  14- 16 elastic   1.9586E-15  2.0555E-14  0.0000E+00 -1.5431E-24  3.1915E-07  2.1404E-17   -1.0000E+00
  15- 16 elastic   3.3762E+06  3.2357E+05  0.0000E+00  4.5863E-06 -2.7468E+03 -4.6795E-07    1.5780E+11
  16- 16 elastic   3.8846E+06  3.7222E+05  0.0000E+00  5.2622E-06 -2.7468E+03 -4.6795E-07    1.5780E+11
      73-    100
   1- 16 elastic  -3.5870E+06 -3.4327E+05  0.0000E+00  1.7490E+04 -2.6239E+03 -6.4482E+03    1.5780E+11
   2- 16 elastic  -3.0992E+06 -2.9659E+05  0.0000E+00  1.5158E+04 -2.6239E+03 -6.4482E+03    1.5780E+11
   3- 16 elastic  -1.7827E-15 -1.8677E-14  0.0000E+00  9.1589E-17  3.0488E-07  3.9629E-07   -1.0000E+00
   4- 16 elastic  -1.4497E-15 -1.5188E-14  0.0000E+00  7.4937E-17  3.0488E-07  3.9629E-07   -1.0000E+00
   5- 16 elastic  -1.6357E+06 -1.5654E+05  0.0000E+00  8.1621E+03 -2.6239E+03 -6.4482E+03    1.5780E+11
   6- 16 elastic  -1.1479E+06 -1.0986E+05  0.0000E+00  5.8301E+03 -2.6239E+03 -6.4482E+03    1.5780E+11
   7- 16 elastic  -4.5063E-16 -4.7215E-15  0.0000E+00  2.4980E-17  3.0488E-07  3.9629E-07   -1.0000E+00
   8- 16 elastic  -1.1760E-16 -1.2326E-15  0.0000E+00  8.3272E-18  3.0488E-07  3.9629E-07   -1.0000E+00
   9- 16 elastic   2.1543E-16  2.2563E-15  0.0000E+00 -8.3252E-18  3.0488E-07  3.9629E-07   -1.0000E+00
  10- 16 elastic   5.4846E-16  5.7452E-15  0.0000E+00 -2.4978E-17  3.0488E-07  3.9629E-07   -1.0000E+00
  11- 16 elastic   1.2912E+06  1.2356E+05  0.0000E+00 -5.8299E+03 -2.6239E+03 -6.4482E+03    1.5780E+11
  12- 16 elastic   1.7791E+06  1.7024E+05  0.0000E+00 -8.1619E+03 -2.6239E+03 -6.4482E+03    1.5780E+11
  13- 16 elastic   1.5475E-15  1.6212E-14  0.0000E+00 -7.4935E-17  3.0488E-07  3.9629E-07   -1.0000E+00
  14- 16 elastic   1.8806E-15  1.9701E-14  0.0000E+00 -9.1587E-17  3.0488E-07  3.9629E-07   -1.0000E+00
  15- 16 elastic   3.2426E+06  3.1029E+05  0.0000E+00 -1.5158E+04 -2.6239E+03 -6.4482E+03    1.5780E+11
  16- 16 elastic   3.7304E+06  3.5697E+05  0.0000E+00 -1.7490E+04 -2.6239E+03 -6.4482E+03    1.5780E+11
      74-    100
   1- 16 elastic  -3.1362E+06 -3.0140E+05  0.0000E+00  3.3577E+04 -2.3363E+03 -1.2376E+04    1.5780E+11
   2- 16 elastic  -2.7085E+06 -2.6047E+05  0.0000E+00  2.9100E+04 -2.3363E+03 -1.2376E+04    1.5780E+11
   3- 16 elastic  -1.5591E-15 -1.6430E-14  0.0000E+00  1.7583E-16  2.7145E-07  7.6060E-07   -1.0000E+00
   4- 16 elastic  -1.2671E-15 -1.3371E-14  0.0000E+00  1.4386E-16  2.7145E-07  7.6060E-07   -1.0000E+00
   5- 16 elastic  -1.4252E+06 -1.3768E+05  0.0000E+00  1.5669E+04 -2.3363E+03 -1.2376E+04    1.5780E+11
   6- 16 elastic  -9.9743E+05 -9.6753E+04  0.0000E+00  1.1192E+04 -2.3363E+03 -1.2376E+04    1.5780E+11
   7- 16 elastic  -3.9105E-16 -4.1945E-15  0.0000E+00  4.7955E-17  2.7145E-07  7.6060E-07   -1.0000E+00
   8- 16 elastic  -9.9031E-17 -1.1356E-15  0.0000E+00  1.5986E-17  2.7145E-07  7.6060E-07   -1.0000E+00
   9- 16 elastic   1.9298E-16  1.9233E-15  0.0000E+00 -1.5983E-17  2.7145E-07  7.6060E-07   -1.0000E+00
  10- 16 elastic   4.8500E-16  4.9823E-15  0.0000E+00 -4.7952E-17  2.7145E-07  7.6060E-07   -1.0000E+00
  11- 16 elastic   1.1414E+06  1.0790E+05  0.0000E+00 -1.1192E+04 -2.3363E+03 -1.2376E+04    1.5780E+11
  12- 16 elastic   1.5691E+06  1.4883E+05  0.0000E+00 -1.5669E+04 -2.3363E+03 -1.2376E+04    1.5780E+11
  13- 16 elastic   1.3610E-15  1.4159E-14  0.0000E+00 -1.4386E-16  2.7145E-07  7.6060E-07   -1.0000E+00
  14- 16 elastic   1.6531E-15  1.7218E-14  0.0000E+00 -1.7583E-16  2.7145E-07  7.6060E-07   -1.0000E+00
  15- 16 elastic   2.8524E+06  2.7162E+05  0.0000E+00 -2.9100E+04 -2.3363E+03 -1.2376E+04    1.5780E+11
  16- 16 elastic   3.2802E+06  3.1255E+05  0.0000E+00 -3.3577E+04 -2.3363E+03 -1.2376E+04    1.5780E+11
      81-    100
   1- 16 elastic  -2.7574E+06 -2.6389E+05  0.0000E+00 -6.4461E+04 -4.4843E+03  1.0945E+04    1.5780E+11
   2- 16 elastic  -2.3823E+06 -2.2800E+05  0.0000E+00 -5.5866E+04 -4.4843E+03  1.0945E+04    1.5780E+11
   3- 16 elastic  -1.3704E-15 -1.4358E-14  0.0000E+00 -3.3756E-16  5.2104E-07 -6.7263E-07   -1.0000E+00
   4- 16 elastic  -1.1143E-15 -1.1675E-14  0.0000E+00 -2.7618E-16  5.2104E-07 -6.7263E-07   -1.0000E+00
   5- 16 elastic  -1.2572E+06 -1.2032E+05  0.0000E+00 -3.0082E+04 -4.4843E+03  1.0945E+04    1.5780E+11
   6- 16 elastic  -8.8216E+05 -8.4431E+04  0.0000E+00 -2.1487E+04 -4.4843E+03  1.0945E+04    1.5780E+11
   7- 16 elastic  -3.4622E-16 -3.6278E-15  0.0000E+00 -9.2062E-17  5.2104E-07 -6.7263E-07   -1.0000E+00
   8- 16 elastic  -9.0179E-17 -9.4531E-16  0.0000E+00 -3.0688E-17  5.2104E-07 -6.7263E-07   -1.0000E+00
   9- 16 elastic   1.6586E-16  1.7372E-15  0.0000E+00  3.0685E-17  5.2104E-07 -6.7263E-07   -1.0000E+00
  10- 16 elastic   4.2190E-16  4.4197E-15  0.0000E+00  9.2059E-17  5.2104E-07 -6.7263E-07   -1.0000E+00
  11- 16 elastic   9.9305E+05  9.5029E+04  0.0000E+00  2.1487E+04 -4.4843E+03  1.0945E+04    1.5780E+11
  12- 16 elastic   1.3681E+06  1.3092E+05  0.0000E+00  3.0081E+04 -4.4843E+03  1.0945E+04    1.5780E+11
  13- 16 elastic   1.1900E-15  1.2467E-14  0.0000E+00  2.7618E-16  5.2104E-07 -6.7263E-07   -1.0000E+00
  14- 16 elastic   1.4460E-15  1.5150E-14  0.0000E+00  3.3755E-16  5.2104E-07 -6.7263E-07   -1.0000E+00
  15- 16 elastic   2.4932E+06  2.3860E+05  0.0000E+00  5.5866E+04 -4.4843E+03  1.0945E+04    1.5780E+11
  16- 16 elastic   2.8683E+06  2.7449E+05  0.0000E+00  6.4460E+04 -4.4843E+03  1.0945E+04    1.5780E+11
      82-    100
   1- 16 elastic  -3.1527E+06 -3.0044E+05  0.0000E+00 -3.3578E+04 -5.0368E+03  5.7026E+03    1.5780E+11
   2- 16 elastic  -2.7250E+06 -2.5951E+05  0.0000E+00 -2.9101E+04 -5.0368E+03  5.7026E+03    1.5780E+11
   3- 16 elastic  -1.5662E-15 -1.6314E-14  0.0000E+00 -1.7584E-16  5.8524E-07 -3.5046E-07   -1.0000E+00
   4- 16 elastic  -1.2742E-15 -1.3254E-14  0.0000E+00 -1.4387E-16  5.8524E-07 -3.5046E-07   -1.0000E+00
   5- 16 elastic  -1.4418E+06 -1.3670E+05  0.0000E+00 -1.5670E+04 -5.0368E+03  5.7026E+03    1.5780E+11
   6- 16 elastic  -1.0141E+06 -9.5762E+04  0.0000E+00 -1.1193E+04 -5.0368E+03  5.7026E+03    1.5780E+11
   7- 16 elastic  -3.9821E-16 -4.0754E-15  0.0000E+00 -4.7956E-17  5.8524E-07 -3.5046E-07   -1.0000E+00
   8- 16 elastic  -1.0621E-16 -1.0158E-15  0.0000E+00 -1.5986E-17  5.8524E-07 -3.5046E-07   -1.0000E+00
   9- 16 elastic   1.8579E-16  2.0437E-15  0.0000E+00  1.5984E-17  5.8524E-07 -3.5046E-07   -1.0000E+00
  10- 16 elastic   4.7779E-16  5.1033E-15  0.0000E+00  4.7953E-17  5.8524E-07 -3.5046E-07   -1.0000E+00
  11- 16 elastic   1.1244E+06  1.0892E+05  0.0000E+00  1.1192E+04 -5.0368E+03  5.7026E+03    1.5780E+11
  12- 16 elastic   1.5521E+06  1.4986E+05  0.0000E+00  1.5669E+04 -5.0368E+03  5.7026E+03    1.5780E+11
  13- 16 elastic   1.3538E-15  1.4282E-14  0.0000E+00  1.4386E-16  5.8524E-07 -3.5046E-07   -1.0000E+00
  14- 16 elastic   1.6458E-15  1.7342E-14  0.0000E+00  1.7583E-16  5.8524E-07 -3.5046E-07   -1.0000E+00
  15- 16 elastic   2.8353E+06  2.7267E+05  0.0000E+00  2.9101E+04 -5.0368E+03  5.7026E+03    1.5780E+11
  16- 16 elastic   3.2630E+06  3.1360E+05  0.0000E+00  3.3578E+04 -5.0368E+03  5.7026E+03    1.5780E+11
      83-    100
   1- 16 elastic  -3.2881E+06 -3.1292E+05  0.0000E+00 -3.8758E-06 -5.2729E+03 -8.1890E-07    1.5780E+11
   2- 16 elastic  -2.8423E+06 -2.7026E+05  0.0000E+00 -3.3313E-06 -5.2729E+03 -8.1890E-07    1.5780E+11
   3- 16 elastic  -1.6332E-15 -1.6980E-14  0.0000E+00  1.2776E-24  6.1267E-07  3.6208E-17   -1.0000E+00
   4- 16 elastic  -1.3289E-15 -1.3791E-14  0.0000E+00  1.0378E-24  6.1267E-07  3.6208E-17   -1.0000E+00
   5- 16 elastic  -1.5051E+06 -1.4227E+05  0.0000E+00 -1.6976E-06 -5.2729E+03 -8.1890E-07    1.5780E+11
   6- 16 elastic  -1.0593E+06 -9.9604E+04  0.0000E+00 -1.1531E-06 -5.2729E+03 -8.1890E-07    1.5780E+11
   7- 16 elastic  -4.1596E-16 -4.2251E-15  0.0000E+00  3.1830E-25  6.1267E-07  3.6208E-17   -1.0000E+00
   8- 16 elastic  -1.1165E-16 -1.0364E-15  0.0000E+00  7.8477E-26  6.1267E-07  3.6208E-17   -1.0000E+00
   9- 16 elastic   1.9267E-16  2.1523E-15  0.0000E+00 -1.6135E-25  6.1267E-07  3.6208E-17   -1.0000E+00
  10- 16 elastic   4.9699E-16  5.3410E-15  0.0000E+00 -4.0117E-25  6.1267E-07  3.6208E-17   -1.0000E+00
  11- 16 elastic   1.1694E+06  1.1372E+05  0.0000E+00  1.5697E-06 -5.2729E+03 -8.1890E-07    1.5780E+11
  12- 16 elastic   1.6152E+06  1.5638E+05  0.0000E+00  2.1143E-06 -5.2729E+03 -8.1890E-07    1.5780E+11
  13- 16 elastic   1.4099E-15  1.4907E-14  0.0000E+00 -1.1206E-24  6.1267E-07  3.6208E-17   -1.0000E+00
  14- 16 elastic   1.7143E-15  1.8096E-14  0.0000E+00 -1.3605E-24  6.1267E-07  3.6208E-17   -1.0000E+00
  15- 16 elastic   2.9524E+06  2.8437E+05  0.0000E+00  3.7480E-06 -5.2729E+03 -8.1890E-07    1.5780E+11
  16- 16 elastic   3.3982E+06  3.2703E+05  0.0000E+00  4.2925E-06 -5.2729E+03 -8.1890E-07    1.5780E+11
      84-    100
   1- 16 elastic  -3.1527E+06 -3.0044E+05  0.0000E+00  3.3578E+04 -5.0368E+03 -5.7026E+03    1.5780E+11
   2- 16 elastic  -2.7250E+06 -2.5951E+05  0.0000E+00  2.9101E+04 -5.0368E+03 -5.7026E+03    1.5780E+11
   3- 16 elastic  -1.5662E-15 -1.6314E-14  0.0000E+00  1.7584E-16  5.8524E-07  3.5046E-07   -1.0000E+00
   4- 16 elastic  -1.2742E-15 -1.3254E-14  0.0000E+00  1.4387E-16  5.8524E-07  3.5046E-07   -1.0000E+00
   5- 16 elastic  -1.4418E+06 -1.3670E+05  0.0000E+00  1.5670E+04 -5.0368E+03 -5.7026E+03    1.5780E+11
   6- 16 elastic  -1.0141E+06 -9.5762E+04  0.0000E+00  1.1193E+04 -5.0368E+03 -5.7026E+03    1.5780E+11
   7- 16 elastic  -3.9821E-16 -4.0754E-15  0.0000E+00  4.7956E-17  5.8524E-07  3.5046E-07   -1.0000E+00
   8- 16 elastic  -1.0621E-16 -1.0158E-15  0.0000E+00  1.5986E-17  5.8524E-07  3.5046E-07   -1.0000E+00
   9- 16 elastic   1.8579E-16  2.0437E-15  0.0000E+00 -1.5984E-17  5.8524E-07  3.5046E-07   -1.0000E+00
  10- 16 elastic   4.7779E-16  5.1033E-15  0.0000E+00 -4.7953E-17  5.8524E-07  3.5046E-07   -1.0000E+00
  11- 16 elastic   1.1244E+06  1.0892E+05  0.0000E+00 -1.1192E+04 -5.0368E+03 -5.7026E+03    1.5780E+11
  12- 16 elastic   1.5521E+06  1.4986E+05  0.0000E+00 -1.5669E+04 -5.0368E+03 -5.7026E+03    1.5780E+11
  13- 16 elastic   1.3538E-15  1.4282E-14  0.0000E+00 -1.4386E-16  5.8524E-07  3.5046E-07   -1.0000E+00
  14- 16 elastic   1.6458E-15  1.7342E-14  0.0000E+00 -1.7583E-16  5.8524E-07  3.5046E-07   -1.0000E+00
  15- 16 elastic   2.8353E+06  2.7267E+05  0.0000E+00 -2.9101E+04 -5.0368E+03 -5.7026E+03    1.5780E+11
  16- 16 elastic   3.2630E+06  3.1360E+05  0.0000E+00 -3.3578E+04 -5.0368E+03 -5.7026E+03    1.5780E+11
      85-    100
   1- 16 elastic  -2.7574E+06 -2.6389E+05  0.0000E+00  6.4461E+04 -4.4843E+03 -1.0945E+04    1.5780E+11
   2- 16 elastic  -2.3823E+06 -2.2800E+05  0.0000E+00  5.5866E+04 -4.4843E+03 -1.0945E+04    1.5780E+11
   3- 16 elastic  -1.3704E-15 -1.4358E-14  0.0000E+00  3.3756E-16  5.2104E-07  6.7263E-07   -1.0000E+00
   4- 16 elastic  -1.1143E-15 -1.1675E-14  0.0000E+00  2.7618E-16  5.2104E-07  6.7263E-07   -1.0000E+00
   5- 16 elastic  -1.2572E+06 -1.2032E+05  0.0000E+00  3.0082E+04 -4.4843E+03 -1.0945E+04    1.5780E+11
   6- 16 elastic  -8.8216E+05 -8.4431E+04  0.0000E+00  2.1487E+04 -4.4843E+03 -1.0945E+04    1.5780E+11
   7- 16 elastic  -3.4622E-16 -3.6278E-15  0.0000E+00  9.2062E-17  5.2104E-07  6.7263E-07   -1.0000E+00
   8- 16 elastic  -9.0179E-17 -9.4531E-16  0.0000E+00  3.0688E-17  5.2104E-07  6.7263E-07   -1.0000E+00
   9- 16 elastic   1.6586E-16  1.7372E-15  0.0000E+00 -3.0685E-17  5.2104E-07  6.7263E-07   -1.0000E+00
  10- 16 elastic   4.2190E-16  4.4197E-15  0.0000E+00 -9.2059E-17  5.2104E-07  6.7263E-07   -1.0000E+00
  11- 16 elastic   9.9305E+05  9.5029E+04  0.0000E+00 -2.1487E+04 -4.4843E+03 -1.0945E+04    1.5780E+11
  12- 16 elastic   1.3681E+06  1.3092E+05  0.0000E+00 -3.0081E+04 -4.4843E+03 -1.0945E+04    1.5780E+11
  13- 16 elastic   1.1900E-15  1.2467E-14  0.0000E+00 -2.7618E-16  5.2104E-07  6.7263E-07   -1.0000E+00
  14- 16 elastic   1.4460E-15  1.5150E-14  0.0000E+00 -3.3755E-16  5.2104E-07  6.7263E-07   -1.0000E+00
  15- 16 elastic   2.4932E+06  2.3860E+05  0.0000E+00 -5.5866E+04 -4.4843E+03 -1.0945E+04    1.5780E+11
  16- 16 elastic   2.8683E+06  2.7449E+05  0.0000E+00 -6.4460E+04 -4.4843E+03 -1.0945E+04    1.5780E+11

 strains (lamina)      eps-xx      eps-yy      eps-zz      eps-xy      eps-yz      eps-zx                                    
                                                                                                                     
      37-    100
 lower surface    -1.7367E-05 -1.7397E-05  1.4400E-05  7.3251E-06  7.0068E-07  1.2437E-06
 upper surface     1.8066E-05  1.8096E-05 -1.4979E-05 -7.3251E-06  7.0068E-07  1.2437E-06
      38-    100
 lower surface    -1.9859E-05 -1.9786E-05  1.6416E-05  3.8157E-06  7.8700E-07  6.4802E-07
 upper surface     2.0550E-05  2.0697E-05 -1.7091E-05 -3.8156E-06  7.8700E-07  6.4802E-07
      39-    100
 lower surface    -2.0713E-05 -2.0601E-05  1.7106E-05 -4.4020E-16  8.2389E-07  9.3061E-17
 upper surface     2.1401E-05  2.1591E-05 -1.7816E-05  4.8754E-16  8.2389E-07  9.3061E-17
      40-    100
 lower surface    -1.9859E-05 -1.9786E-05  1.6416E-05 -3.8157E-06  7.8700E-07 -6.4802E-07
 upper surface     2.0550E-05  2.0697E-05 -1.7091E-05  3.8156E-06  7.8700E-07 -6.4802E-07
      41-    100
 lower surface    -1.7367E-05 -1.7397E-05  1.4400E-05 -7.3251E-06  7.0068E-07 -1.2437E-06
 upper surface     1.8066E-05  1.8096E-05 -1.4979E-05  7.3251E-06  7.0068E-07 -1.2437E-06
      48-    100
 lower surface    -1.9751E-05 -1.9891E-05  1.6426E-05  3.8156E-06  3.6504E-07  1.4064E-06
 upper surface     2.0662E-05  2.0582E-05 -1.7079E-05 -3.8155E-06  3.6504E-07  1.4064E-06
      49-    100
 lower surface    -2.2593E-05 -2.2630E-05  1.8732E-05  1.9875E-06  4.0999E-07  7.3275E-07
 upper surface     2.3496E-05  2.3533E-05 -1.9480E-05 -1.9875E-06  4.0999E-07  7.3275E-07
      50-    100
 lower surface    -2.3566E-05 -2.3565E-05  1.9521E-05 -5.5389E-16  4.2918E-07  5.3175E-17
 upper surface     2.4466E-05  2.4547E-05 -2.0304E-05  5.9773E-16  4.2918E-07  5.3175E-17
      51-    100
 lower surface    -2.2593E-05 -2.2630E-05  1.8732E-05 -1.9875E-06  4.0999E-07 -7.3275E-07
 upper surface     2.3496E-05  2.3533E-05 -1.9480E-05  1.9875E-06  4.0999E-07 -7.3275E-07
      52-    100
 lower surface    -1.9751E-05 -1.9891E-05  1.6426E-05 -3.8156E-06  3.6504E-07 -1.4064E-06
 upper surface     2.0662E-05  2.0582E-05 -1.7079E-05  3.8155E-06  3.6504E-07 -1.4064E-06
      59-    100
 lower surface    -2.0565E-05 -2.0746E-05  1.7119E-05 -2.4212E-16 -9.8163E-17  1.4694E-06
 upper surface     2.1555E-05  2.1434E-05 -1.7799E-05  2.5908E-16 -9.8163E-17  1.4694E-06
      60-    100
 lower surface    -2.3526E-05 -2.3604E-05  1.9524E-05 -4.8204E-16 -5.2462E-17  7.6554E-07
 upper surface     2.4508E-05  2.4504E-05 -2.0300E-05  5.1790E-16 -5.2462E-17  7.6554E-07
      61-    100
 lower surface    -2.4540E-05 -2.4580E-05  2.0347E-05 -5.7398E-16 -5.1881E-21 -2.4882E-21
 upper surface     2.5519E-05  2.5559E-05 -2.1158E-05  6.1633E-16 -5.1881E-21 -2.4882E-21
      62-    100
 lower surface    -2.3526E-05 -2.3604E-05  1.9524E-05 -4.8204E-16  5.2472E-17 -7.6554E-07
 upper surface     2.4508E-05  2.4504E-05 -2.0300E-05  5.1790E-16  5.2472E-17 -7.6554E-07
      63-    100
 lower surface    -2.0565E-05 -2.0746E-05  1.7119E-05 -2.4212E-16  9.8172E-17 -1.4694E-06
 upper surface     2.1555E-05  2.1434E-05 -1.7799E-05  2.5908E-16  9.8172E-17 -1.4694E-06
      70-    100
 lower surface    -1.9751E-05 -1.9891E-05  1.6426E-05 -3.8156E-06 -3.6504E-07  1.4064E-06
 upper surface     2.0662E-05  2.0582E-05 -1.7079E-05  3.8155E-06 -3.6504E-07  1.4064E-06
      71-    100
 lower surface    -2.2593E-05 -2.2630E-05  1.8732E-05 -1.9875E-06 -4.0999E-07  7.3275E-07
 upper surface     2.3496E-05  2.3533E-05 -1.9480E-05  1.9875E-06 -4.0999E-07  7.3275E-07
      72-    100
 lower surface    -2.3566E-05 -2.3565E-05  1.9521E-05 -5.5389E-16 -4.2918E-07 -5.3177E-17
 upper surface     2.4466E-05  2.4547E-05 -2.0304E-05  5.9773E-16 -4.2918E-07 -5.3177E-17
      73-    100
 lower surface    -2.2593E-05 -2.2630E-05  1.8732E-05  1.9875E-06 -4.0999E-07 -7.3275E-07
 upper surface     2.3496E-05  2.3533E-05 -1.9480E-05 -1.9875E-06 -4.0999E-07 -7.3275E-07
      74-    100
 lower surface    -1.9751E-05 -1.9891E-05  1.6426E-05  3.8156E-06 -3.6504E-07 -1.4064E-06
 upper surface     2.0662E-05  2.0582E-05 -1.7079E-05 -3.8155E-06 -3.6504E-07 -1.4064E-06
      81-    100
 lower surface    -1.7367E-05 -1.7397E-05  1.4400E-05 -7.3251E-06 -7.0068E-07  1.2437E-06
 upper surface     1.8066E-05  1.8096E-05 -1.4979E-05  7.3251E-06 -7.0068E-07  1.2437E-06
      82-    100
 lower surface    -1.9859E-05 -1.9786E-05  1.6416E-05 -3.8157E-06 -7.8700E-07  6.4802E-07
 upper surface     2.0550E-05  2.0697E-05 -1.7091E-05  3.8156E-06 -7.8700E-07  6.4802E-07
      83-    100
 lower surface    -2.0713E-05 -2.0601E-05  1.7106E-05 -4.4020E-16 -8.2389E-07 -9.3057E-17
 upper surface     2.1401E-05  2.1591E-05 -1.7816E-05  4.8754E-16 -8.2389E-07 -9.3057E-17
      84-    100
 lower surface    -1.9859E-05 -1.9786E-05  1.6416E-05  3.8157E-06 -7.8700E-07 -6.4802E-07
 upper surface     2.0550E-05  2.0697E-05 -1.7091E-05 -3.8156E-06 -7.8700E-07 -6.4802E-07
      85-    100
 lower surface    -1.7367E-05 -1.7397E-05  1.4400E-05  7.3251E-06 -7.0068E-07 -1.2437E-06
 upper surface     1.8066E-05  1.8096E-05 -1.4979E-05 -7.3251E-06 -7.0068E-07 -1.2437E-06
