 Stress recovery trial                                                   
                         ls-dyna ls971d.53450 R4.2.1  date 06/08/2009



 n o d a l   p r i n t   o u t   f o r   t i m e  s t e p       1                              ( at time 0.00000E+00 )

 nodal point  x-disp     y-disp      z-disp      x-vel       y-vel       z-vel      x-accl      y-accl      z-accl      x-coor      y-coor      z-coor
       40   0.0000E+00  0.0000E+00  0.0000E+00  0.0000E+00  0.0000E+00  0.0000E+00  0.0000E+00  0.0000E+00  0.0000E+00 -2.2727E-01 -2.2727E-01  0.0000E+00
       41   0.0000E+00  0.0000E+00  0.0000E+00  0.0000E+00  0.0000E+00  0.0000E+00  0.0000E+00  0.0000E+00  0.0000E+00 -1.3636E-01 -2.2727E-01  0.0000E+00
       42   0.0000E+00  0.0000E+00  0.0000E+00  0.0000E+00  0.0000E+00  0.0000E+00  0.0000E+00  0.0000E+00  0.0000E+00 -4.5455E-02 -2.2727E-01  0.0000E+00
       43   0.0000E+00  0.0000E+00  0.0000E+00  0.0000E+00  0.0000E+00  0.0000E+00  0.0000E+00  0.0000E+00  0.0000E+00  4.5455E-02 -2.2727E-01  0.0000E+00
       44   0.0000E+00  0.0000E+00  0.0000E+00  0.0000E+00  0.0000E+00  0.0000E+00  0.0000E+00  0.0000E+00  0.0000E+00  1.3636E-01 -2.2727E-01  0.0000E+00
       45   0.0000E+00  0.0000E+00  0.0000E+00  0.0000E+00  0.0000E+00  0.0000E+00  0.0000E+00  0.0000E+00  0.0000E+00  2.2727E-01 -2.2727E-01  0.0000E+00
       52   0.0000E+00  0.0000E+00  0.0000E+00  0.0000E+00  0.0000E+00  0.0000E+00  0.0000E+00  0.0000E+00  0.0000E+00 -2.2727E-01 -1.3636E-01  0.0000E+00
       53   0.0000E+00  0.0000E+00  0.0000E+00  0.0000E+00  0.0000E+00  0.0000E+00  0.0000E+00  0.0000E+00  0.0000E+00 -1.3636E-01 -1.3636E-01  0.0000E+00
       54   0.0000E+00  0.0000E+00  0.0000E+00  0.0000E+00  0.0000E+00  0.0000E+00  0.0000E+00  0.0000E+00  0.0000E+00 -4.5455E-02 -1.3636E-01  0.0000E+00
       55   0.0000E+00  0.0000E+00  0.0000E+00  0.0000E+00  0.0000E+00  0.0000E+00  0.0000E+00  0.0000E+00  0.0000E+00  4.5455E-02 -1.3636E-01  0.0000E+00
       56   0.0000E+00  0.0000E+00  0.0000E+00  0.0000E+00  0.0000E+00  0.0000E+00  0.0000E+00  0.0000E+00  0.0000E+00  1.3636E-01 -1.3636E-01  0.0000E+00
       57   0.0000E+00  0.0000E+00  0.0000E+00  0.0000E+00  0.0000E+00  0.0000E+00  0.0000E+00  0.0000E+00  0.0000E+00  2.2727E-01 -1.3636E-01  0.0000E+00
       64   0.0000E+00  0.0000E+00  0.0000E+00  0.0000E+00  0.0000E+00  0.0000E+00  0.0000E+00  0.0000E+00  0.0000E+00 -2.2727E-01 -4.5455E-02  0.0000E+00
       65   0.0000E+00  0.0000E+00  0.0000E+00  0.0000E+00  0.0000E+00  0.0000E+00  0.0000E+00  0.0000E+00  0.0000E+00 -1.3636E-01 -4.5455E-02  0.0000E+00
       66   0.0000E+00  0.0000E+00  0.0000E+00  0.0000E+00  0.0000E+00  0.0000E+00  0.0000E+00  0.0000E+00  0.0000E+00 -4.5455E-02 -4.5455E-02  0.0000E+00
       67   0.0000E+00  0.0000E+00  0.0000E+00  0.0000E+00  0.0000E+00  0.0000E+00  0.0000E+00  0.0000E+00  0.0000E+00  4.5455E-02 -4.5455E-02  0.0000E+00
       68   0.0000E+00  0.0000E+00  0.0000E+00  0.0000E+00  0.0000E+00  0.0000E+00  0.0000E+00  0.0000E+00  0.0000E+00  1.3636E-01 -4.5455E-02  0.0000E+00
       69   0.0000E+00  0.0000E+00  0.0000E+00  0.0000E+00  0.0000E+00  0.0000E+00  0.0000E+00  0.0000E+00  0.0000E+00  2.2727E-01 -4.5455E-02  0.0000E+00
       76   0.0000E+00  0.0000E+00  0.0000E+00  0.0000E+00  0.0000E+00  0.0000E+00  0.0000E+00  0.0000E+00  0.0000E+00 -2.2727E-01  4.5455E-02  0.0000E+00
       77   0.0000E+00  0.0000E+00  0.0000E+00  0.0000E+00  0.0000E+00  0.0000E+00  0.0000E+00  0.0000E+00  0.0000E+00 -1.3636E-01  4.5455E-02  0.0000E+00
       78   0.0000E+00  0.0000E+00  0.0000E+00  0.0000E+00  0.0000E+00  0.0000E+00  0.0000E+00  0.0000E+00  0.0000E+00 -4.5455E-02  4.5455E-02  0.0000E+00
       79   0.0000E+00  0.0000E+00  0.0000E+00  0.0000E+00  0.0000E+00  0.0000E+00  0.0000E+00  0.0000E+00  0.0000E+00  4.5455E-02  4.5455E-02  0.0000E+00
       80   0.0000E+00  0.0000E+00  0.0000E+00  0.0000E+00  0.0000E+00  0.0000E+00  0.0000E+00  0.0000E+00  0.0000E+00  1.3636E-01  4.5455E-02  0.0000E+00
       81   0.0000E+00  0.0000E+00  0.0000E+00  0.0000E+00  0.0000E+00  0.0000E+00  0.0000E+00  0.0000E+00  0.0000E+00  2.2727E-01  4.5455E-02  0.0000E+00
       88   0.0000E+00  0.0000E+00  0.0000E+00  0.0000E+00  0.0000E+00  0.0000E+00  0.0000E+00  0.0000E+00  0.0000E+00 -2.2727E-01  1.3636E-01  0.0000E+00
       89   0.0000E+00  0.0000E+00  0.0000E+00  0.0000E+00  0.0000E+00  0.0000E+00  0.0000E+00  0.0000E+00  0.0000E+00 -1.3636E-01  1.3636E-01  0.0000E+00
       90   0.0000E+00  0.0000E+00  0.0000E+00  0.0000E+00  0.0000E+00  0.0000E+00  0.0000E+00  0.0000E+00  0.0000E+00 -4.5455E-02  1.3636E-01  0.0000E+00
       91   0.0000E+00  0.0000E+00  0.0000E+00  0.0000E+00  0.0000E+00  0.0000E+00  0.0000E+00  0.0000E+00  0.0000E+00  4.5455E-02  1.3636E-01  0.0000E+00
       92   0.0000E+00  0.0000E+00  0.0000E+00  0.0000E+00  0.0000E+00  0.0000E+00  0.0000E+00  0.0000E+00  0.0000E+00  1.3636E-01  1.3636E-01  0.0000E+00
       93   0.0000E+00  0.0000E+00  0.0000E+00  0.0000E+00  0.0000E+00  0.0000E+00  0.0000E+00  0.0000E+00  0.0000E+00  2.2727E-01  1.3636E-01  0.0000E+00
      100   0.0000E+00  0.0000E+00  0.0000E+00  0.0000E+00  0.0000E+00  0.0000E+00  0.0000E+00  0.0000E+00  0.0000E+00 -2.2727E-01  2.2727E-01  0.0000E+00
      101   0.0000E+00  0.0000E+00  0.0000E+00  0.0000E+00  0.0000E+00  0.0000E+00  0.0000E+00  0.0000E+00  0.0000E+00 -1.3636E-01  2.2727E-01  0.0000E+00
      102   0.0000E+00  0.0000E+00  0.0000E+00  0.0000E+00  0.0000E+00  0.0000E+00  0.0000E+00  0.0000E+00  0.0000E+00 -4.5455E-02  2.2727E-01  0.0000E+00
      103   0.0000E+00  0.0000E+00  0.0000E+00  0.0000E+00  0.0000E+00  0.0000E+00  0.0000E+00  0.0000E+00  0.0000E+00  4.5455E-02  2.2727E-01  0.0000E+00
      104   0.0000E+00  0.0000E+00  0.0000E+00  0.0000E+00  0.0000E+00  0.0000E+00  0.0000E+00  0.0000E+00  0.0000E+00  1.3636E-01  2.2727E-01  0.0000E+00
      105   0.0000E+00  0.0000E+00  0.0000E+00  0.0000E+00  0.0000E+00  0.0000E+00  0.0000E+00  0.0000E+00  0.0000E+00  2.2727E-01  2.2727E-01  0.0000E+00



 n o d a l   p r i n t   o u t   f o r   t i m e  s t e p       1                              ( at time 0.00000E+00 )

 nodal point  x-rot      y-rot       z-rot       x-rot vel   y-rot vel   z-rot vel   x-rot acc   y-rot acc   z-rot acc
       40   0.0000E+00  0.0000E+00  0.0000E+00  0.0000E+00  0.0000E+00  0.0000E+00  0.0000E+00  0.0000E+00  0.0000E+00
       41   0.0000E+00  0.0000E+00  0.0000E+00  0.0000E+00  0.0000E+00  0.0000E+00  0.0000E+00  0.0000E+00  0.0000E+00
       42   0.0000E+00  0.0000E+00  0.0000E+00  0.0000E+00  0.0000E+00  0.0000E+00  0.0000E+00  0.0000E+00  0.0000E+00
       43   0.0000E+00  0.0000E+00  0.0000E+00  0.0000E+00  0.0000E+00  0.0000E+00  0.0000E+00  0.0000E+00  0.0000E+00
       44   0.0000E+00  0.0000E+00  0.0000E+00  0.0000E+00  0.0000E+00  0.0000E+00  0.0000E+00  0.0000E+00  0.0000E+00
       45   0.0000E+00  0.0000E+00  0.0000E+00  0.0000E+00  0.0000E+00  0.0000E+00  0.0000E+00  0.0000E+00  0.0000E+00
       52   0.0000E+00  0.0000E+00  0.0000E+00  0.0000E+00  0.0000E+00  0.0000E+00  0.0000E+00  0.0000E+00  0.0000E+00
       53   0.0000E+00  0.0000E+00  0.0000E+00  0.0000E+00  0.0000E+00  0.0000E+00  0.0000E+00  0.0000E+00  0.0000E+00
       54   0.0000E+00  0.0000E+00  0.0000E+00  0.0000E+00  0.0000E+00  0.0000E+00  0.0000E+00  0.0000E+00  0.0000E+00
       55   0.0000E+00  0.0000E+00  0.0000E+00  0.0000E+00  0.0000E+00  0.0000E+00  0.0000E+00  0.0000E+00  0.0000E+00
       56   0.0000E+00  0.0000E+00  0.0000E+00  0.0000E+00  0.0000E+00  0.0000E+00  0.0000E+00  0.0000E+00  0.0000E+00
       57   0.0000E+00  0.0000E+00  0.0000E+00  0.0000E+00  0.0000E+00  0.0000E+00  0.0000E+00  0.0000E+00  0.0000E+00
       64   0.0000E+00  0.0000E+00  0.0000E+00  0.0000E+00  0.0000E+00  0.0000E+00  0.0000E+00  0.0000E+00  0.0000E+00
       65   0.0000E+00  0.0000E+00  0.0000E+00  0.0000E+00  0.0000E+00  0.0000E+00  0.0000E+00  0.0000E+00  0.0000E+00
       66   0.0000E+00  0.0000E+00  0.0000E+00  0.0000E+00  0.0000E+00  0.0000E+00  0.0000E+00  0.0000E+00  0.0000E+00
       67   0.0000E+00  0.0000E+00  0.0000E+00  0.0000E+00  0.0000E+00  0.0000E+00  0.0000E+00  0.0000E+00  0.0000E+00
       68   0.0000E+00  0.0000E+00  0.0000E+00  0.0000E+00  0.0000E+00  0.0000E+00  0.0000E+00  0.0000E+00  0.0000E+00
       69   0.0000E+00  0.0000E+00  0.0000E+00  0.0000E+00  0.0000E+00  0.0000E+00  0.0000E+00  0.0000E+00  0.0000E+00
       76   0.0000E+00  0.0000E+00  0.0000E+00  0.0000E+00  0.0000E+00  0.0000E+00  0.0000E+00  0.0000E+00  0.0000E+00
       77   0.0000E+00  0.0000E+00  0.0000E+00  0.0000E+00  0.0000E+00  0.0000E+00  0.0000E+00  0.0000E+00  0.0000E+00
       78   0.0000E+00  0.0000E+00  0.0000E+00  0.0000E+00  0.0000E+00  0.0000E+00  0.0000E+00  0.0000E+00  0.0000E+00
       79   0.0000E+00  0.0000E+00  0.0000E+00  0.0000E+00  0.0000E+00  0.0000E+00  0.0000E+00  0.0000E+00  0.0000E+00
       80   0.0000E+00  0.0000E+00  0.0000E+00  0.0000E+00  0.0000E+00  0.0000E+00  0.0000E+00  0.0000E+00  0.0000E+00
       81   0.0000E+00  0.0000E+00  0.0000E+00  0.0000E+00  0.0000E+00  0.0000E+00  0.0000E+00  0.0000E+00  0.0000E+00
       88   0.0000E+00  0.0000E+00  0.0000E+00  0.0000E+00  0.0000E+00  0.0000E+00  0.0000E+00  0.0000E+00  0.0000E+00
       89   0.0000E+00  0.0000E+00  0.0000E+00  0.0000E+00  0.0000E+00  0.0000E+00  0.0000E+00  0.0000E+00  0.0000E+00
       90   0.0000E+00  0.0000E+00  0.0000E+00  0.0000E+00  0.0000E+00  0.0000E+00  0.0000E+00  0.0000E+00  0.0000E+00
       91   0.0000E+00  0.0000E+00  0.0000E+00  0.0000E+00  0.0000E+00  0.0000E+00  0.0000E+00  0.0000E+00  0.0000E+00
       92   0.0000E+00  0.0000E+00  0.0000E+00  0.0000E+00  0.0000E+00  0.0000E+00  0.0000E+00  0.0000E+00  0.0000E+00
       93   0.0000E+00  0.0000E+00  0.0000E+00  0.0000E+00  0.0000E+00  0.0000E+00  0.0000E+00  0.0000E+00  0.0000E+00
      100   0.0000E+00  0.0000E+00  0.0000E+00  0.0000E+00  0.0000E+00  0.0000E+00  0.0000E+00  0.0000E+00  0.0000E+00
      101   0.0000E+00  0.0000E+00  0.0000E+00  0.0000E+00  0.0000E+00  0.0000E+00  0.0000E+00  0.0000E+00  0.0000E+00
      102   0.0000E+00  0.0000E+00  0.0000E+00  0.0000E+00  0.0000E+00  0.0000E+00  0.0000E+00  0.0000E+00  0.0000E+00
      103   0.0000E+00  0.0000E+00  0.0000E+00  0.0000E+00  0.0000E+00  0.0000E+00  0.0000E+00  0.0000E+00  0.0000E+00
      104   0.0000E+00  0.0000E+00  0.0000E+00  0.0000E+00  0.0000E+00  0.0000E+00  0.0000E+00  0.0000E+00  0.0000E+00
      105   0.0000E+00  0.0000E+00  0.0000E+00  0.0000E+00  0.0000E+00  0.0000E+00  0.0000E+00  0.0000E+00  0.0000E+00



 n o d a l   p r i n t   o u t   f o r   t i m e  s t e p     202                              ( at time 5.00000E-01 )

 nodal point  x-disp     y-disp      z-disp      x-vel       y-vel       z-vel      x-accl      y-accl      z-accl      x-coor      y-coor      z-coor
       40  -1.1119E-08 -1.1121E-08  1.3044E-04  0.0000E+00  0.0000E+00  0.0000E+00  1.0146E-06  1.0128E-06  1.4260E-08 -2.2727E-01 -2.2727E-01  1.3044E-04
       41  -8.4891E-09 -1.6460E-08  1.5699E-04  0.0000E+00  0.0000E+00  0.0000E+00  8.0259E-07  1.5456E-06  1.2313E-08 -1.3636E-01 -2.2727E-01  1.5699E-04
       42  -3.1645E-09 -1.9634E-08  1.7083E-04  0.0000E+00  0.0000E+00  0.0000E+00  3.0538E-07  1.8659E-06  1.0270E-08 -4.5455E-02 -2.2727E-01  1.7083E-04
       43   3.1645E-09 -1.9634E-08  1.7083E-04  0.0000E+00  0.0000E+00  0.0000E+00 -3.0538E-07  1.8659E-06  1.0270E-08  4.5455E-02 -2.2727E-01  1.7083E-04
       44   8.4891E-09 -1.6460E-08  1.5699E-04  0.0000E+00  0.0000E+00  0.0000E+00 -8.0259E-07  1.5456E-06  1.2313E-08  1.3636E-01 -2.2727E-01  1.5699E-04
       45   1.1119E-08 -1.1121E-08  1.3044E-04  0.0000E+00  0.0000E+00  0.0000E+00 -1.0146E-06  1.0128E-06  1.4260E-08  2.2727E-01 -2.2727E-01  1.3044E-04
       52  -1.6459E-08 -8.4902E-09  1.5699E-04  0.0000E+00  0.0000E+00  0.0000E+00  1.5576E-06  8.2507E-07  1.3192E-08 -2.2727E-01 -1.3636E-01  1.5699E-04
       53  -1.2565E-08 -1.2566E-08  1.8895E-04  0.0000E+00  0.0000E+00  0.0000E+00  1.2300E-06  1.2557E-06 -1.2506E-09 -1.3636E-01 -1.3636E-01  1.8895E-04
       54  -4.6838E-09 -1.4988E-08  2.0561E-04  0.0000E+00  0.0000E+00  0.0000E+00  4.6758E-07  1.5145E-06 -1.2438E-08 -4.5455E-02 -1.3636E-01  2.0561E-04
       55   4.6838E-09 -1.4988E-08  2.0561E-04  0.0000E+00  0.0000E+00  0.0000E+00 -4.6758E-07  1.5145E-06 -1.2438E-08  4.5455E-02 -1.3636E-01  2.0561E-04
       56   1.2565E-08 -1.2566E-08  1.8895E-04  0.0000E+00  0.0000E+00  0.0000E+00 -1.2300E-06  1.2557E-06 -1.2506E-09  1.3636E-01 -1.3636E-01  1.8895E-04
       57   1.6459E-08 -8.4902E-09  1.5699E-04  0.0000E+00  0.0000E+00  0.0000E+00 -1.5576E-06  8.2507E-07  1.3192E-08  2.2727E-01 -1.3636E-01  1.5699E-04
       64  -1.9632E-08 -3.1649E-09  1.7083E-04  0.0000E+00  0.0000E+00  0.0000E+00  1.8872E-06  3.1905E-07  1.1799E-08 -2.2727E-01 -4.5455E-02  1.7083E-04
       65  -1.4988E-08 -4.6841E-09  2.0561E-04  0.0000E+00  0.0000E+00  0.0000E+00  1.4893E-06  4.8489E-07 -1.1753E-08 -1.3636E-01 -4.5455E-02  2.0561E-04
       66  -5.5868E-09 -5.5870E-09  2.2373E-04  0.0000E+00  0.0000E+00  0.0000E+00  5.6592E-07  5.8449E-07 -2.9578E-08 -4.5455E-02 -4.5455E-02  2.2373E-04
       67   5.5868E-09 -5.5870E-09  2.2373E-04  0.0000E+00  0.0000E+00  0.0000E+00 -5.6592E-07  5.8449E-07 -2.9578E-08  4.5455E-02 -4.5455E-02  2.2373E-04
       68   1.4988E-08 -4.6841E-09  2.0561E-04  0.0000E+00  0.0000E+00  0.0000E+00 -1.4893E-06  4.8489E-07 -1.1753E-08  1.3636E-01 -4.5455E-02  2.0561E-04
       69   1.9632E-08 -3.1649E-09  1.7083E-04  0.0000E+00  0.0000E+00  0.0000E+00 -1.8872E-06  3.1905E-07  1.1799E-08  2.2727E-01 -4.5455E-02  1.7083E-04
       76  -1.9632E-08  3.1649E-09  1.7083E-04  0.0000E+00  0.0000E+00  0.0000E+00  1.8872E-06 -3.1905E-07  1.1799E-08 -2.2727E-01  4.5455E-02  1.7083E-04
       77  -1.4988E-08  4.6841E-09  2.0561E-04  0.0000E+00  0.0000E+00  0.0000E+00  1.4893E-06 -4.8489E-07 -1.1753E-08 -1.3636E-01  4.5455E-02  2.0561E-04
       78  -5.5868E-09  5.5870E-09  2.2373E-04  0.0000E+00  0.0000E+00  0.0000E+00  5.6592E-07 -5.8449E-07 -2.9578E-08 -4.5455E-02  4.5455E-02  2.2373E-04
       79   5.5868E-09  5.5870E-09  2.2373E-04  0.0000E+00  0.0000E+00  0.0000E+00 -5.6592E-07 -5.8449E-07 -2.9578E-08  4.5455E-02  4.5455E-02  2.2373E-04
       80   1.4988E-08  4.6841E-09  2.0561E-04  0.0000E+00  0.0000E+00  0.0000E+00 -1.4893E-06 -4.8489E-07 -1.1753E-08  1.3636E-01  4.5455E-02  2.0561E-04
       81   1.9632E-08  3.1649E-09  1.7083E-04  0.0000E+00  0.0000E+00  0.0000E+00 -1.8872E-06 -3.1905E-07  1.1799E-08  2.2727E-01  4.5455E-02  1.7083E-04
       88  -1.6459E-08  8.4902E-09  1.5699E-04  0.0000E+00  0.0000E+00  0.0000E+00  1.5576E-06 -8.2507E-07  1.3192E-08 -2.2727E-01  1.3636E-01  1.5699E-04
       89  -1.2565E-08  1.2566E-08  1.8895E-04  0.0000E+00  0.0000E+00  0.0000E+00  1.2300E-06 -1.2557E-06 -1.2506E-09 -1.3636E-01  1.3636E-01  1.8895E-04
       90  -4.6838E-09  1.4988E-08  2.0561E-04  0.0000E+00  0.0000E+00  0.0000E+00  4.6758E-07 -1.5145E-06 -1.2438E-08 -4.5455E-02  1.3636E-01  2.0561E-04
       91   4.6838E-09  1.4988E-08  2.0561E-04  0.0000E+00  0.0000E+00  0.0000E+00 -4.6758E-07 -1.5145E-06 -1.2438E-08  4.5455E-02  1.3636E-01  2.0561E-04
       92   1.2565E-08  1.2566E-08  1.8895E-04  0.0000E+00  0.0000E+00  0.0000E+00 -1.2300E-06 -1.2557E-06 -1.2507E-09  1.3636E-01  1.3636E-01  1.8895E-04
       93   1.6459E-08  8.4902E-09  1.5699E-04  0.0000E+00  0.0000E+00  0.0000E+00 -1.5576E-06 -8.2507E-07  1.3192E-08  2.2727E-01  1.3636E-01  1.5699E-04
      100  -1.1119E-08  1.1121E-08  1.3044E-04  0.0000E+00  0.0000E+00  0.0000E+00  1.0146E-06 -1.0128E-06  1.4260E-08 -2.2727E-01  2.2727E-01  1.3044E-04
      101  -8.4891E-09  1.6460E-08  1.5699E-04  0.0000E+00  0.0000E+00  0.0000E+00  8.0259E-07 -1.5456E-06  1.2313E-08 -1.3636E-01  2.2727E-01  1.5699E-04
      102  -3.1645E-09  1.9634E-08  1.7083E-04  0.0000E+00  0.0000E+00  0.0000E+00  3.0538E-07 -1.8659E-06  1.0270E-08 -4.5455E-02  2.2727E-01  1.7083E-04
      103   3.1645E-09  1.9634E-08  1.7083E-04  0.0000E+00  0.0000E+00  0.0000E+00 -3.0538E-07 -1.8659E-06  1.0270E-08  4.5455E-02  2.2727E-01  1.7083E-04
      104   8.4891E-09  1.6460E-08  1.5699E-04  0.0000E+00  0.0000E+00  0.0000E+00 -8.0259E-07 -1.5456E-06  1.2313E-08  1.3636E-01  2.2727E-01  1.5699E-04
      105   1.1119E-08  1.1121E-08  1.3044E-04  0.0000E+00  0.0000E+00  0.0000E+00 -1.0146E-06 -1.0128E-06  1.4260E-08  2.2727E-01  2.2727E-01  1.3044E-04



 n o d a l   p r i n t   o u t   f o r   t i m e  s t e p     202                              ( at time 5.00000E-01 )

 nodal point  x-rot      y-rot       z-rot       x-rot vel   y-rot vel   z-rot vel   x-rot acc   y-rot acc   z-rot acc
       40   3.5667E-04 -3.5608E-04  2.5333E-09  0.0000E+00  0.0000E+00  0.0000E+00  8.9442E-12 -9.3403E-11 -5.5325E-11
       41   4.2932E-04 -2.2588E-04  1.9482E-09  0.0000E+00  0.0000E+00  0.0000E+00  4.0191E-12 -6.1464E-11 -4.6854E-11
       42   4.6716E-04 -7.7381E-05  7.2257E-10  0.0000E+00  0.0000E+00  0.0000E+00 -1.2520E-13 -2.1509E-11 -1.8432E-11
       43   4.6716E-04  7.7381E-05 -7.2257E-10  0.0000E+00  0.0000E+00  0.0000E+00 -1.2365E-13  2.1510E-11  1.8432E-11
       44   4.2932E-04  2.2588E-04 -1.9482E-09  0.0000E+00  0.0000E+00  0.0000E+00  4.0204E-12  6.1465E-11  4.6854E-11
       45   3.5667E-04  3.5608E-04 -2.5333E-09  0.0000E+00  0.0000E+00  0.0000E+00  8.9425E-12  9.3402E-11  5.5325E-11
       52   2.2624E-04 -4.2862E-04  1.9200E-09  0.0000E+00  0.0000E+00  0.0000E+00 -1.6791E-11 -4.8173E-11 -6.0668E-11
       53   2.7233E-04 -2.7189E-04  1.4766E-09  0.0000E+00  0.0000E+00  0.0000E+00 -3.2755E-11 -1.0104E-11 -4.9824E-11
       54   2.9633E-04 -9.3144E-05  5.4765E-10  0.0000E+00  0.0000E+00  0.0000E+00 -4.3818E-11  6.9958E-13 -1.9298E-11
       55   2.9633E-04  9.3144E-05 -5.4765E-10  0.0000E+00  0.0000E+00  0.0000E+00 -4.3819E-11 -7.0024E-13  1.9298E-11
       56   2.7233E-04  2.7189E-04 -1.4766E-09  0.0000E+00  0.0000E+00  0.0000E+00 -3.2754E-11  1.0107E-11  4.9823E-11
       57   2.2624E-04  4.2862E-04 -1.9200E-09  0.0000E+00  0.0000E+00  0.0000E+00 -1.6792E-11  4.8168E-11  6.0668E-11
       64   7.7506E-05 -4.6639E-04  7.1940E-10  0.0000E+00  0.0000E+00  0.0000E+00 -1.0310E-11 -1.0595E-11 -2.6764E-11
       65   9.3295E-05 -2.9585E-04  5.5325E-10  0.0000E+00  0.0000E+00  0.0000E+00 -1.8400E-11  3.0465E-11 -2.1742E-11
       66   1.0152E-04 -1.0135E-04  2.0519E-10  0.0000E+00  0.0000E+00  0.0000E+00 -2.3916E-11  1.8006E-11 -8.3744E-12
       67   1.0152E-04  1.0135E-04 -2.0519E-10  0.0000E+00  0.0000E+00  0.0000E+00 -2.3917E-11 -1.8006E-11  8.3739E-12
       68   9.3295E-05  2.9585E-04 -5.5325E-10  0.0000E+00  0.0000E+00  0.0000E+00 -1.8399E-11 -3.0460E-11  2.1742E-11
       69   7.7506E-05  4.6639E-04 -7.1940E-10  0.0000E+00  0.0000E+00  0.0000E+00 -1.0308E-11  1.0595E-11  2.6764E-11
       76  -7.7506E-05 -4.6639E-04 -7.1940E-10  0.0000E+00  0.0000E+00  0.0000E+00  1.0310E-11 -1.0596E-11  2.6764E-11
       77  -9.3295E-05 -2.9585E-04 -5.5325E-10  0.0000E+00  0.0000E+00  0.0000E+00  1.8399E-11  3.0463E-11  2.1742E-11
       78  -1.0152E-04 -1.0135E-04 -2.0519E-10  0.0000E+00  0.0000E+00  0.0000E+00  2.3916E-11  1.8006E-11  8.3739E-12
       79  -1.0152E-04  1.0135E-04  2.0519E-10  0.0000E+00  0.0000E+00  0.0000E+00  2.3917E-11 -1.8007E-11 -8.3744E-12
       80  -9.3295E-05  2.9585E-04  5.5325E-10  0.0000E+00  0.0000E+00  0.0000E+00  1.8400E-11 -3.0464E-11 -2.1742E-11
       81  -7.7506E-05  4.6639E-04  7.1940E-10  0.0000E+00  0.0000E+00  0.0000E+00  1.0312E-11  1.0596E-11 -2.6764E-11
       88  -2.2624E-04 -4.2862E-04 -1.9200E-09  0.0000E+00  0.0000E+00  0.0000E+00  1.6792E-11 -4.8170E-11  6.0668E-11
       89  -2.7233E-04 -2.7189E-04 -1.4766E-09  0.0000E+00  0.0000E+00  0.0000E+00  3.2753E-11 -1.0104E-11  4.9823E-11
       90  -2.9633E-04 -9.3144E-05 -5.4765E-10  0.0000E+00  0.0000E+00  0.0000E+00  4.3820E-11  6.9847E-13  1.9298E-11
       91  -2.9633E-04  9.3144E-05  5.4765E-10  0.0000E+00  0.0000E+00  0.0000E+00  4.3818E-11 -7.0002E-13 -1.9298E-11
       92  -2.7233E-04  2.7189E-04  1.4766E-09  0.0000E+00  0.0000E+00  0.0000E+00  3.2753E-11  1.0103E-11 -4.9824E-11
       93  -2.2624E-04  4.2862E-04  1.9200E-09  0.0000E+00  0.0000E+00  0.0000E+00  1.6791E-11  4.8173E-11 -6.0668E-11
      100  -3.5667E-04 -3.5608E-04 -2.5333E-09  0.0000E+00  0.0000E+00  0.0000E+00 -8.9418E-12 -9.3402E-11  5.5325E-11
      101  -4.2932E-04 -2.2588E-04 -1.9482E-09  0.0000E+00  0.0000E+00  0.0000E+00 -4.0209E-12 -6.1465E-11  4.6854E-11
      102  -4.6716E-04 -7.7381E-05 -7.2257E-10  0.0000E+00  0.0000E+00  0.0000E+00  1.2387E-13 -2.1511E-11  1.8432E-11
      103  -4.6716E-04  7.7381E-05  7.2257E-10  0.0000E+00  0.0000E+00  0.0000E+00  1.2498E-13  2.1510E-11 -1.8432E-11
      104  -4.2932E-04  2.2588E-04  1.9482E-09  0.0000E+00  0.0000E+00  0.0000E+00 -4.0204E-12  6.1464E-11 -4.6854E-11
      105  -3.5667E-04  3.5608E-04  2.5333E-09  0.0000E+00  0.0000E+00  0.0000E+00 -8.9436E-12  9.3403E-11 -5.5325E-11



 n o d a l   p r i n t   o u t   f o r   t i m e  s t e p     402                              ( at time 1.00000E+00 )

 nodal point  x-disp     y-disp      z-disp      x-vel       y-vel       z-vel      x-accl      y-accl      z-accl      x-coor      y-coor      z-coor
       40  -4.4291E-08 -4.4299E-08  2.6032E-04  0.0000E+00  0.0000E+00  0.0000E+00  3.9373E-06  3.9301E-06  1.6852E-08 -2.2727E-01 -2.2727E-01  2.6032E-04
       41  -3.3814E-08 -6.5567E-08  3.1332E-04  0.0000E+00  0.0000E+00  0.0000E+00  3.1136E-06  5.9963E-06  1.9510E-08 -1.3636E-01 -2.2727E-01  3.1332E-04
       42  -1.2605E-08 -7.8207E-08  3.4094E-04  0.0000E+00  0.0000E+00  0.0000E+00  1.1845E-06  7.2384E-06  2.0891E-08 -4.5455E-02 -2.2727E-01  3.4094E-04
       43   1.2605E-08 -7.8207E-08  3.4094E-04  0.0000E+00  0.0000E+00  0.0000E+00 -1.1845E-06  7.2384E-06  2.0891E-08  4.5455E-02 -2.2727E-01  3.4094E-04
       44   3.3814E-08 -6.5567E-08  3.1332E-04  0.0000E+00  0.0000E+00  0.0000E+00 -3.1136E-06  5.9963E-06  1.9510E-08  1.3636E-01 -2.2727E-01  3.1332E-04
       45   4.4291E-08 -4.4299E-08  2.6032E-04  0.0000E+00  0.0000E+00  0.0000E+00 -3.9373E-06  3.9301E-06  1.6852E-08  2.2727E-01 -2.2727E-01  2.6032E-04
       52  -6.5558E-08 -3.3819E-08  3.1332E-04  0.0000E+00  0.0000E+00  0.0000E+00  6.0435E-06  3.2004E-06  2.7189E-08 -2.2727E-01 -1.3636E-01  3.1332E-04
       53  -5.0049E-08 -5.0053E-08  3.7711E-04  0.0000E+00  0.0000E+00  0.0000E+00  4.7710E-06  4.8700E-06  2.5379E-08 -1.3636E-01 -1.3636E-01  3.7711E-04
       54  -1.8656E-08 -5.9701E-08  4.1035E-04  0.0000E+00  0.0000E+00  0.0000E+00  1.8133E-06  5.8729E-06  2.2997E-08 -4.5455E-02 -1.3636E-01  4.1035E-04
       55   1.8656E-08 -5.9701E-08  4.1035E-04  0.0000E+00  0.0000E+00  0.0000E+00 -1.8133E-06  5.8729E-06  2.2997E-08  4.5455E-02 -1.3636E-01  4.1035E-04
       56   5.0049E-08 -5.0053E-08  3.7711E-04  0.0000E+00  0.0000E+00  0.0000E+00 -4.7710E-06  4.8700E-06  2.5379E-08  1.3636E-01 -1.3636E-01  3.7711E-04
       57   6.5558E-08 -3.3819E-08  3.1332E-04  0.0000E+00  0.0000E+00  0.0000E+00 -6.0435E-06  3.2004E-06  2.7188E-08  2.2727E-01 -1.3636E-01  3.1332E-04
       64  -7.8198E-08 -1.2606E-08  3.4093E-04  0.0000E+00  0.0000E+00  0.0000E+00  7.3215E-06  1.2373E-06  3.4346E-08 -2.2727E-01 -4.5455E-02  3.4093E-04
       65  -5.9697E-08 -1.8657E-08  4.1035E-04  0.0000E+00  0.0000E+00  0.0000E+00  5.7761E-06  1.8801E-06  2.9086E-08 -1.3636E-01 -4.5455E-02  4.1035E-04
       66  -2.2253E-08 -2.2254E-08  4.4652E-04  0.0000E+00  0.0000E+00  0.0000E+00  2.1945E-06  2.2660E-06  2.3832E-08 -4.5455E-02 -4.5455E-02  4.4652E-04
       67   2.2253E-08 -2.2254E-08  4.4652E-04  0.0000E+00  0.0000E+00  0.0000E+00 -2.1945E-06  2.2660E-06  2.3833E-08  4.5455E-02 -4.5455E-02  4.4652E-04
       68   5.9697E-08 -1.8657E-08  4.1035E-04  0.0000E+00  0.0000E+00  0.0000E+00 -5.7761E-06  1.8801E-06  2.9087E-08  1.3636E-01 -4.5455E-02  4.1035E-04
       69   7.8198E-08 -1.2606E-08  3.4093E-04  0.0000E+00  0.0000E+00  0.0000E+00 -7.3215E-06  1.2373E-06  3.4346E-08  2.2727E-01 -4.5455E-02  3.4093E-04
       76  -7.8198E-08  1.2606E-08  3.4093E-04  0.0000E+00  0.0000E+00  0.0000E+00  7.3215E-06 -1.2373E-06  3.4346E-08 -2.2727E-01  4.5455E-02  3.4093E-04
       77  -5.9697E-08  1.8657E-08  4.1035E-04  0.0000E+00  0.0000E+00  0.0000E+00  5.7761E-06 -1.8801E-06  2.9086E-08 -1.3636E-01  4.5455E-02  4.1035E-04
       78  -2.2253E-08  2.2254E-08  4.4652E-04  0.0000E+00  0.0000E+00  0.0000E+00  2.1945E-06 -2.2660E-06  2.3833E-08 -4.5455E-02  4.5455E-02  4.4652E-04
       79   2.2253E-08  2.2254E-08  4.4652E-04  0.0000E+00  0.0000E+00  0.0000E+00 -2.1945E-06 -2.2660E-06  2.3833E-08  4.5455E-02  4.5455E-02  4.4652E-04
       80   5.9697E-08  1.8657E-08  4.1035E-04  0.0000E+00  0.0000E+00  0.0000E+00 -5.7761E-06 -1.8801E-06  2.9086E-08  1.3636E-01  4.5455E-02  4.1035E-04
       81   7.8198E-08  1.2606E-08  3.4093E-04  0.0000E+00  0.0000E+00  0.0000E+00 -7.3215E-06 -1.2373E-06  3.4346E-08  2.2727E-01  4.5455E-02  3.4093E-04
       88  -6.5558E-08  3.3819E-08  3.1332E-04  0.0000E+00  0.0000E+00  0.0000E+00  6.0435E-06 -3.2004E-06  2.7188E-08 -2.2727E-01  1.3636E-01  3.1332E-04
       89  -5.0049E-08  5.0053E-08  3.7711E-04  0.0000E+00  0.0000E+00  0.0000E+00  4.7710E-06 -4.8700E-06  2.5379E-08 -1.3636E-01  1.3636E-01  3.7711E-04
       90  -1.8656E-08  5.9701E-08  4.1035E-04  0.0000E+00  0.0000E+00  0.0000E+00  1.8133E-06 -5.8729E-06  2.2997E-08 -4.5455E-02  1.3636E-01  4.1035E-04
       91   1.8656E-08  5.9701E-08  4.1035E-04  0.0000E+00  0.0000E+00  0.0000E+00 -1.8133E-06 -5.8729E-06  2.2997E-08  4.5455E-02  1.3636E-01  4.1035E-04
       92   5.0049E-08  5.0053E-08  3.7711E-04  0.0000E+00  0.0000E+00  0.0000E+00 -4.7710E-06 -4.8700E-06  2.5379E-08  1.3636E-01  1.3636E-01  3.7711E-04
       93   6.5558E-08  3.3819E-08  3.1332E-04  0.0000E+00  0.0000E+00  0.0000E+00 -6.0435E-06 -3.2004E-06  2.7188E-08  2.2727E-01  1.3636E-01  3.1332E-04
      100  -4.4291E-08  4.4299E-08  2.6032E-04  0.0000E+00  0.0000E+00  0.0000E+00  3.9373E-06 -3.9301E-06  1.6852E-08 -2.2727E-01  2.2727E-01  2.6032E-04
      101  -3.3814E-08  6.5567E-08  3.1332E-04  0.0000E+00  0.0000E+00  0.0000E+00  3.1136E-06 -5.9963E-06  1.9510E-08 -1.3636E-01  2.2727E-01  3.1332E-04
      102  -1.2605E-08  7.8207E-08  3.4094E-04  0.0000E+00  0.0000E+00  0.0000E+00  1.1845E-06 -7.2384E-06  2.0891E-08 -4.5455E-02  2.2727E-01  3.4094E-04
      103   1.2605E-08  7.8207E-08  3.4094E-04  0.0000E+00  0.0000E+00  0.0000E+00 -1.1845E-06 -7.2384E-06  2.0891E-08  4.5455E-02  2.2727E-01  3.4094E-04
      104   3.3814E-08  6.5567E-08  3.1332E-04  0.0000E+00  0.0000E+00  0.0000E+00 -3.1136E-06 -5.9963E-06  1.9510E-08  1.3636E-01  2.2727E-01  3.1332E-04
      105   4.4291E-08  4.4299E-08  2.6032E-04  0.0000E+00  0.0000E+00  0.0000E+00 -3.9373E-06 -3.9301E-06  1.6852E-08  2.2727E-01  2.2727E-01  2.6032E-04



 n o d a l   p r i n t   o u t   f o r   t i m e  s t e p     402                              ( at time 1.00000E+00 )

 nodal point  x-rot      y-rot       z-rot       x-rot vel   y-rot vel   z-rot vel   x-rot acc   y-rot acc   z-rot acc
       40   7.1180E-04 -7.1065E-04  1.0080E-08  0.0000E+00  0.0000E+00  0.0000E+00  2.2796E-11 -1.8803E-10 -3.4039E-10
       41   8.5679E-04 -4.5078E-04  7.7535E-09  0.0000E+00  0.0000E+00  0.0000E+00  5.8933E-11 -1.3558E-10 -2.9326E-10
       42   9.3230E-04 -1.5443E-04  2.8760E-09  0.0000E+00  0.0000E+00  0.0000E+00  8.1928E-11 -4.9779E-11 -1.1651E-10
       43   9.3230E-04  1.5443E-04 -2.8760E-09  0.0000E+00  0.0000E+00  0.0000E+00  8.1926E-11  4.9780E-11  1.1651E-10
       44   8.5679E-04  4.5078E-04 -7.7535E-09  0.0000E+00  0.0000E+00  0.0000E+00  5.8932E-11  1.3558E-10  2.9326E-10
       45   7.1180E-04  7.1065E-04 -1.0080E-08  0.0000E+00  0.0000E+00  0.0000E+00  2.2795E-11  1.8803E-10  3.4039E-10
       52   4.5150E-04 -8.5540E-04  7.6362E-09  0.0000E+00  0.0000E+00  0.0000E+00 -1.5552E-11 -1.4690E-10 -4.0389E-10
       53   5.4347E-04 -5.4260E-04  5.8738E-09  0.0000E+00  0.0000E+00  0.0000E+00  1.4835E-12 -8.5356E-11 -3.3376E-10
       54   5.9136E-04 -1.8588E-04  2.1786E-09  0.0000E+00  0.0000E+00  0.0000E+00  1.3083E-11 -2.7657E-11 -1.2982E-10
       55   5.9136E-04  1.8588E-04 -2.1786E-09  0.0000E+00  0.0000E+00  0.0000E+00  1.3079E-11  2.7664E-11  1.2982E-10
       56   5.4347E-04  5.4260E-04 -5.8738E-09  0.0000E+00  0.0000E+00  0.0000E+00  1.4834E-12  8.5351E-11  3.3376E-10
       57   4.5150E-04  8.5540E-04 -7.6362E-09  0.0000E+00  0.0000E+00  0.0000E+00 -1.5551E-11  1.4691E-10  4.0389E-10
       64   1.5467E-04 -9.3077E-04  2.8603E-09  0.0000E+00  0.0000E+00  0.0000E+00 -1.1399E-11 -1.0381E-10 -1.8275E-10
       65   1.8618E-04 -5.9041E-04  2.2001E-09  0.0000E+00  0.0000E+00  0.0000E+00 -6.7892E-12 -3.9639E-11 -1.4902E-10
       66   2.0258E-04 -2.0226E-04  8.1604E-10  0.0000E+00  0.0000E+00  0.0000E+00 -3.4493E-12 -8.2480E-12 -5.7560E-11
       67   2.0258E-04  2.0226E-04 -8.1604E-10  0.0000E+00  0.0000E+00  0.0000E+00 -3.4471E-12  8.2569E-12  5.7559E-11
       68   1.8618E-04  5.9041E-04 -2.2001E-09  0.0000E+00  0.0000E+00  0.0000E+00 -6.7875E-12  3.9630E-11  1.4902E-10
       69   1.5467E-04  9.3077E-04 -2.8603E-09  0.0000E+00  0.0000E+00  0.0000E+00 -1.1401E-11  1.0381E-10  1.8275E-10
       76  -1.5467E-04 -9.3077E-04 -2.8603E-09  0.0000E+00  0.0000E+00  0.0000E+00  1.1404E-11 -1.0382E-10  1.8275E-10
       77  -1.8618E-04 -5.9041E-04 -2.2001E-09  0.0000E+00  0.0000E+00  0.0000E+00  6.7886E-12 -3.9627E-11  1.4902E-10
       78  -2.0258E-04 -2.0226E-04 -8.1604E-10  0.0000E+00  0.0000E+00  0.0000E+00  3.4442E-12 -8.2547E-12  5.7559E-11
       79  -2.0258E-04  2.0226E-04  8.1604E-10  0.0000E+00  0.0000E+00  0.0000E+00  3.4501E-12  8.2480E-12 -5.7560E-11
       80  -1.8618E-04  5.9041E-04  2.2001E-09  0.0000E+00  0.0000E+00  0.0000E+00  6.7935E-12  3.9637E-11 -1.4902E-10
       81  -1.5467E-04  9.3077E-04  2.8603E-09  0.0000E+00  0.0000E+00  0.0000E+00  1.1404E-11  1.0382E-10 -1.8275E-10
       88  -4.5150E-04 -8.5540E-04 -7.6362E-09  0.0000E+00  0.0000E+00  0.0000E+00  1.5549E-11 -1.4691E-10  4.0389E-10
       89  -5.4347E-04 -5.4260E-04 -5.8738E-09  0.0000E+00  0.0000E+00  0.0000E+00 -1.4852E-12 -8.5347E-11  3.3376E-10
       90  -5.9136E-04 -1.8588E-04 -2.1786E-09  0.0000E+00  0.0000E+00  0.0000E+00 -1.3079E-11 -2.7659E-11  1.2982E-10
       91  -5.9136E-04  1.8588E-04  2.1786E-09  0.0000E+00  0.0000E+00  0.0000E+00 -1.3083E-11  2.7652E-11 -1.2982E-10
       92  -5.4347E-04  5.4260E-04  5.8738E-09  0.0000E+00  0.0000E+00  0.0000E+00 -1.4830E-12  8.5356E-11 -3.3376E-10
       93  -4.5150E-04  8.5540E-04  7.6362E-09  0.0000E+00  0.0000E+00  0.0000E+00  1.5551E-11  1.4691E-10 -4.0389E-10
      100  -7.1180E-04 -7.1065E-04 -1.0080E-08  0.0000E+00  0.0000E+00  0.0000E+00 -2.2798E-11 -1.8803E-10  3.4039E-10
      101  -8.5679E-04 -4.5078E-04 -7.7535E-09  0.0000E+00  0.0000E+00  0.0000E+00 -5.8932E-11 -1.3558E-10  2.9326E-10
      102  -9.3230E-04 -1.5443E-04 -2.8760E-09  0.0000E+00  0.0000E+00  0.0000E+00 -8.1925E-11 -4.9777E-11  1.1651E-10
      103  -9.3230E-04  1.5443E-04  2.8760E-09  0.0000E+00  0.0000E+00  0.0000E+00 -8.1927E-11  4.9776E-11 -1.1651E-10
      104  -8.5679E-04  4.5078E-04  7.7535E-09  0.0000E+00  0.0000E+00  0.0000E+00 -5.8934E-11  1.3558E-10 -2.9326E-10
      105  -7.1180E-04  7.1065E-04  1.0080E-08  0.0000E+00  0.0000E+00  0.0000E+00 -2.2796E-11  1.8803E-10 -3.4039E-10
